MODEL        1
USER    Run = 1
USER    DPF = lac3.dpf
USER  
USER    Estimated Free Energy of Binding    =   -4.72 kcal/mol  [=(1)+(2)+(3)-(4)]
USER    Estimated Inhibition Constant, Ki   =  347.68 uM (micromolar)  [Temperature = 298.15 K]
USER    
USER    (1) Final Intermolecular Energy     =   -7.17 kcal/mol
USER        vdW + Hbond + desolv Energy     =   -7.18 kcal/mol
USER        Electrostatic Energy            =   +0.00 kcal/mol
USER    (2) Final Total Internal Energy     =   -0.52 kcal/mol
USER    (3) Torsional Free Energy           =   +2.68 kcal/mol
USER    (4) Unbound System's Energy         =   -0.29 kcal/mol
USER    
USER    
USER    NEWDPF move PE_ligand.pdbqt
USER    NEWDPF about 3.037000 5.209000 3.149000
USER    NEWDPF tran0 27.821195 38.430507 29.296747
USER    NEWDPF quaternion0 0.784298 0.532547 -0.314841 -0.046316
USER    NEWDPF axisangle0 0.785141 0.533119 -0.315179 -174.690644
USER    NEWDPF quat0 0.785141 0.533119 -0.315179 -174.690644
USER    NEWDPF dihe0 169.94 -160.17 178.05 -129.44 -86.92 175.34 -31.00 67.81 35.51 
USER  keepresnum = 1 
USER  
REMARK  9 active torsions:
REMARK  status: ('A' for Active; 'I' for Inactive)
REMARK    1  A    between atoms: C1_1  and  C2_2 
REMARK    2  A    between atoms: C1_1  and  C3_3 
REMARK    3  A    between atoms: C2_2  and  C4_4 
REMARK    4  A    between atoms: C3_3  and  C5_5 
REMARK    5  A    between atoms: C4_4  and  C6_6 
REMARK    6  A    between atoms: C5_5  and  C7_7 
REMARK    7  A    between atoms: C6_6  and  C8_8 
REMARK    8  A    between atoms: C7_7  and  C9_9 
REMARK    9  A    between atoms: C8_8  and  C10_10 
USER                              x       y       z     vdW  Elec       q    Type
USER                           _______ _______ _______ _____ _____    ______ ____
ROOT
ATOM      1  C1  MOL C   1      28.216  37.657  28.520 -0.64 -0.00    +0.000 C 
ENDROOT
BRANCH   1   2
ATOM      2  C2  MOL C   1      28.055  39.169  28.309 -0.64 -0.00    +0.000 C 
BRANCH   2   3
ATOM      3  C4  MOL C   1      28.855  39.874  29.453 -0.59 -0.00    +0.000 C 
BRANCH   3   4
ATOM      4  C6  MOL C   1      29.367  41.355  29.049 -0.67 -0.00    +0.000 C 
BRANCH   4   5
ATOM      5  C8  MOL C   1      30.224  42.078  30.064 -0.71 +0.00    -0.000 C 
BRANCH   5   6
ATOM      6  C10 MOL C   1      30.127  41.318  31.382 -0.67 +0.01    -0.005 C 
ATOM      7  C12 MOL C   1      29.910  42.127  32.626 -0.56 -0.00    +0.005 C 
ENDBRANCH   5   6
ENDBRANCH   4   5
ENDBRANCH   3   4
ENDBRANCH   2   3
ENDBRANCH   1   2
BRANCH   1   8
ATOM      8  C3  MOL C   1      26.749  37.125  28.768 -0.55 -0.00    +0.000 C 
BRANCH   8   9
ATOM      9  C5  MOL C   1      26.408  37.252  30.375 -0.53 -0.00    +0.000 C 
BRANCH   9  10
ATOM     10  C7  MOL C   1      25.249  38.242  30.768 -0.50 +0.00    -0.000 C 
BRANCH  10  11
ATOM     11  C9  MOL C   1      23.824  37.842  30.251 -0.52 +0.00    -0.005 C 
ATOM     12  C11 MOL C   1      23.759  36.275  30.249 -0.61 -0.00    +0.005 C 
ENDBRANCH  10  11
ENDBRANCH   9  10
ENDBRANCH   8   9
ENDBRANCH   1   8
TORSDOF 9
TER
ENDMDL
MODEL        2
USER    Run = 2
USER    DPF = lac3.dpf
USER  
USER    Estimated Free Energy of Binding    =   -4.82 kcal/mol  [=(1)+(2)+(3)-(4)]
USER    Estimated Inhibition Constant, Ki   =  292.04 uM (micromolar)  [Temperature = 298.15 K]
USER    
USER    (1) Final Intermolecular Energy     =   -7.21 kcal/mol
USER        vdW + Hbond + desolv Energy     =   -7.21 kcal/mol
USER        Electrostatic Energy            =   -0.00 kcal/mol
USER    (2) Final Total Internal Energy     =   -0.58 kcal/mol
USER    (3) Torsional Free Energy           =   +2.68 kcal/mol
USER    (4) Unbound System's Energy         =   -0.29 kcal/mol
USER    
USER    
USER    NEWDPF move PE_ligand.pdbqt
USER    NEWDPF about 3.037000 5.209000 3.149000
USER    NEWDPF tran0 28.639378 37.965279 29.970733
USER    NEWDPF quaternion0 0.792306 0.085668 -0.577271 0.177961
USER    NEWDPF axisangle0 0.805159 0.087057 -0.586635 159.497961
USER    NEWDPF quat0 0.805159 0.087057 -0.586635 159.497961
USER    NEWDPF dihe0 53.25 -141.46 44.98 -45.60 102.94 -44.67 -39.60 -52.11 -135.24 
USER  keepresnum = 1 
USER  
REMARK  9 active torsions:
REMARK  status: ('A' for Active; 'I' for Inactive)
REMARK    1  A    between atoms: C1_1  and  C2_2 
REMARK    2  A    between atoms: C1_1  and  C3_3 
REMARK    3  A    between atoms: C2_2  and  C4_4 
REMARK    4  A    between atoms: C3_3  and  C5_5 
REMARK    5  A    between atoms: C4_4  and  C6_6 
REMARK    6  A    between atoms: C5_5  and  C7_7 
REMARK    7  A    between atoms: C6_6  and  C8_8 
REMARK    8  A    between atoms: C7_7  and  C9_9 
REMARK    9  A    between atoms: C8_8  and  C10_10 
USER                              x       y       z     vdW  Elec       q    Type
USER                           _______ _______ _______ _____ _____    ______ ____
ROOT
ATOM      1  C1  MOL C   1      27.826  37.258  29.528 -0.63 -0.00    +0.000 C 
ENDROOT
BRANCH   1   2
ATOM      2  C2  MOL C   1      28.647  38.307  28.763 -0.59 -0.00    +0.000 C 
BRANCH   2   3
ATOM      3  C4  MOL C   1      27.636  39.382  28.243 -0.68 -0.00    +0.000 C 
BRANCH   3   4
ATOM      4  C6  MOL C   1      28.251  40.879  28.241 -0.62 -0.00    +0.000 C 
BRANCH   4   5
ATOM      5  C8  MOL C   1      29.747  40.999  28.419 -0.63 +0.00    -0.000 C 
BRANCH   5   6
ATOM      6  C10 MOL C   1      30.023  42.273  29.209 -0.71 +0.01    -0.005 C 
ATOM      7  C12 MOL C   1      30.494  42.114  30.624 -0.75 -0.01    +0.005 C 
ENDBRANCH   5   6
ENDBRANCH   4   5
ENDBRANCH   3   4
ENDBRANCH   2   3
ENDBRANCH   1   2
BRANCH   1   8
ATOM      8  C3  MOL C   1      26.978  38.091  30.571 -0.53 -0.00    +0.000 C 
BRANCH   8   9
ATOM      9  C5  MOL C   1      25.601  37.256  30.915 -0.51 -0.00    +0.000 C 
BRANCH   9  10
ATOM     10  C7  MOL C   1      24.276  37.786  30.251 -0.53 +0.00    -0.000 C 
BRANCH  10  11
ATOM     11  C9  MOL C   1      23.206  36.687  29.925 -0.58 +0.00    -0.005 C 
ATOM     12  C11 MOL C   1      22.977  35.864  31.241 -0.45 -0.00    +0.005 C 
ENDBRANCH  10  11
ENDBRANCH   9  10
ENDBRANCH   8   9
ENDBRANCH   1   8
TORSDOF 9
TER
ENDMDL
MODEL        3
USER    Run = 3
USER    DPF = lac3.dpf
USER  
USER    Estimated Free Energy of Binding    =   -4.27 kcal/mol  [=(1)+(2)+(3)-(4)]
USER    Estimated Inhibition Constant, Ki   =  744.84 uM (micromolar)  [Temperature = 298.15 K]
USER    
USER    (1) Final Intermolecular Energy     =   -6.49 kcal/mol
USER        vdW + Hbond + desolv Energy     =   -6.49 kcal/mol
USER        Electrostatic Energy            =   -0.00 kcal/mol
USER    (2) Final Total Internal Energy     =   -0.75 kcal/mol
USER    (3) Torsional Free Energy           =   +2.68 kcal/mol
USER    (4) Unbound System's Energy         =   -0.29 kcal/mol
USER    
USER    
USER    NEWDPF move PE_ligand.pdbqt
USER    NEWDPF about 3.037000 5.209000 3.149000
USER    NEWDPF tran0 27.361441 38.745598 30.467239
USER    NEWDPF quaternion0 -0.445061 0.774033 -0.347867 0.285976
USER    NEWDPF axisangle0 -0.464458 0.807768 -0.363028 146.765592
USER    NEWDPF quat0 -0.464458 0.807768 -0.363028 146.765592
USER    NEWDPF dihe0 68.53 106.47 -36.23 -13.79 147.53 3.86 57.52 62.21 59.49 
USER  keepresnum = 1 
USER  
REMARK  9 active torsions:
REMARK  status: ('A' for Active; 'I' for Inactive)
REMARK    1  A    between atoms: C1_1  and  C2_2 
REMARK    2  A    between atoms: C1_1  and  C3_3 
REMARK    3  A    between atoms: C2_2  and  C4_4 
REMARK    4  A    between atoms: C3_3  and  C5_5 
REMARK    5  A    between atoms: C4_4  and  C6_6 
REMARK    6  A    between atoms: C5_5  and  C7_7 
REMARK    7  A    between atoms: C6_6  and  C8_8 
REMARK    8  A    between atoms: C7_7  and  C9_9 
REMARK    9  A    between atoms: C8_8  and  C10_10 
USER                              x       y       z     vdW  Elec       q    Type
USER                           _______ _______ _______ _____ _____    ______ ____
ROOT
ATOM      1  C1  MOL C   1      26.530  38.514  29.685 -0.50 -0.00    +0.000 C 
ENDROOT
BRANCH   1   2
ATOM      2  C2  MOL C   1      26.659  37.913  31.092 -0.47 -0.00    +0.000 C 
BRANCH   2   3
ATOM      3  C4  MOL C   1      26.119  38.986  32.094 -0.38 -0.00    +0.000 C 
BRANCH   3   4
ATOM      4  C6  MOL C   1      27.244  39.501  33.138 -0.37 -0.00    +0.000 C 
BRANCH   4   5
ATOM      5  C8  MOL C   1      28.491  40.115  32.543 -0.45 +0.00    -0.000 C 
BRANCH   5   6
ATOM      6  C10 MOL C   1      28.776  41.412  33.292 -0.46 +0.00    -0.005 C 
ATOM      7  C12 MOL C   1      30.127  41.554  33.927 -0.52 -0.00    +0.005 C 
ENDBRANCH   5   6
ENDBRANCH   4   5
ENDBRANCH   3   4
ENDBRANCH   2   3
ENDBRANCH   1   2
BRANCH   1   8
ATOM      8  C3  MOL C   1      27.822  38.026  28.917 -0.63 -0.00    +0.000 C 
BRANCH   8   9
ATOM      9  C5  MOL C   1      28.992  39.175  29.074 -0.55 -0.00    +0.000 C 
BRANCH   9  10
ATOM     10  C7  MOL C   1      28.613  40.629  28.603 -0.67 +0.00    -0.000 C 
BRANCH  10  11
ATOM     11  C9  MOL C   1      29.752  41.697  28.751 -0.76 +0.01    -0.005 C 
ATOM     12  C11 MOL C   1      30.123  41.765  30.274 -0.71 -0.01    +0.005 C 
ENDBRANCH  10  11
ENDBRANCH   9  10
ENDBRANCH   8   9
ENDBRANCH   1   8
TORSDOF 9
TER
ENDMDL
MODEL        4
USER    Run = 4
USER    DPF = lac3.dpf
USER  
USER    Estimated Free Energy of Binding    =   -4.44 kcal/mol  [=(1)+(2)+(3)-(4)]
USER    Estimated Inhibition Constant, Ki   =  553.35 uM (micromolar)  [Temperature = 298.15 K]
USER    
USER    (1) Final Intermolecular Energy     =   -6.87 kcal/mol
USER        vdW + Hbond + desolv Energy     =   -6.86 kcal/mol
USER        Electrostatic Energy            =   -0.00 kcal/mol
USER    (2) Final Total Internal Energy     =   -0.55 kcal/mol
USER    (3) Torsional Free Energy           =   +2.68 kcal/mol
USER    (4) Unbound System's Energy         =   -0.29 kcal/mol
USER    
USER    
USER    NEWDPF move PE_ligand.pdbqt
USER    NEWDPF about 3.037000 5.209000 3.149000
USER    NEWDPF tran0 26.964507 37.747025 29.561402
USER    NEWDPF quaternion0 -0.080610 -0.010210 -0.012200 0.996619
USER    NEWDPF axisangle0 -0.981077 -0.124267 -0.148478 9.426013
USER    NEWDPF quat0 -0.981077 -0.124267 -0.148478 9.426013
USER    NEWDPF dihe0 136.99 158.26 155.93 46.15 -176.65 -22.12 -157.94 26.94 35.40 
USER  keepresnum = 1 
USER  
REMARK  9 active torsions:
REMARK  status: ('A' for Active; 'I' for Inactive)
REMARK    1  A    between atoms: C1_1  and  C2_2 
REMARK    2  A    between atoms: C1_1  and  C3_3 
REMARK    3  A    between atoms: C2_2  and  C4_4 
REMARK    4  A    between atoms: C3_3  and  C5_5 
REMARK    5  A    between atoms: C4_4  and  C6_6 
REMARK    6  A    between atoms: C5_5  and  C7_7 
REMARK    7  A    between atoms: C6_6  and  C8_8 
REMARK    8  A    between atoms: C7_7  and  C9_9 
REMARK    9  A    between atoms: C8_8  and  C10_10 
USER                              x       y       z     vdW  Elec       q    Type
USER                           _______ _______ _______ _____ _____    ______ ____
ROOT
ATOM      1  C1  MOL C   1      26.853  38.488  30.454 -0.51 -0.00    +0.000 C 
ENDROOT
BRANCH   1   2
ATOM      2  C2  MOL C   1      28.156  37.860  29.940 -0.60 -0.00    +0.000 C 
BRANCH   2   3
ATOM      3  C4  MOL C   1      28.252  38.198  28.416 -0.60 -0.00    +0.000 C 
BRANCH   3   4
ATOM      4  C6  MOL C   1      27.465  39.555  28.018 -0.70 -0.00    +0.000 C 
BRANCH   4   5
ATOM      5  C8  MOL C   1      28.278  40.829  27.992 -0.67 +0.00    -0.000 C 
BRANCH   5   6
ATOM      6  C10 MOL C   1      29.321  40.740  29.101 -0.63 +0.00    -0.005 C 
ATOM      7  C12 MOL C   1      30.052  42.000  29.458 -0.72 -0.01    +0.005 C 
ENDBRANCH   5   6
ENDBRANCH   4   5
ENDBRANCH   3   4
ENDBRANCH   2   3
ENDBRANCH   1   2
BRANCH   1   8
ATOM      8  C3  MOL C   1      25.985  37.265  30.955 -0.48 -0.00    +0.000 C 
BRANCH   8   9
ATOM      9  C5  MOL C   1      24.497  37.353  30.253 -0.55 -0.00    +0.000 C 
BRANCH   9  10
ATOM     10  C7  MOL C   1      23.461  38.327  30.929 -0.51 +0.00    -0.000 C 
BRANCH  10  11
ATOM     11  C9  MOL C   1      22.151  37.646  31.457 -0.43 +0.00    -0.005 C 
ATOM     12  C11 MOL C   1      22.168  36.161  30.951 -0.45 -0.00    +0.005 C 
ENDBRANCH  10  11
ENDBRANCH   9  10
ENDBRANCH   8   9
ENDBRANCH   1   8
TORSDOF 9
TER
ENDMDL
MODEL        5
USER    Run = 5
USER    DPF = lac3.dpf
USER  
USER    Estimated Free Energy of Binding    =   -4.61 kcal/mol  [=(1)+(2)+(3)-(4)]
USER    Estimated Inhibition Constant, Ki   =  417.75 uM (micromolar)  [Temperature = 298.15 K]
USER    
USER    (1) Final Intermolecular Energy     =   -6.94 kcal/mol
USER        vdW + Hbond + desolv Energy     =   -6.94 kcal/mol
USER        Electrostatic Energy            =   -0.00 kcal/mol
USER    (2) Final Total Internal Energy     =   -0.64 kcal/mol
USER    (3) Torsional Free Energy           =   +2.68 kcal/mol
USER    (4) Unbound System's Energy         =   -0.29 kcal/mol
USER    
USER    
USER    NEWDPF move PE_ligand.pdbqt
USER    NEWDPF about 3.037000 5.209000 3.149000
USER    NEWDPF tran0 28.607472 39.329806 29.828648
USER    NEWDPF quaternion0 -0.560666 -0.279010 0.761604 -0.166633
USER    NEWDPF axisangle0 -0.568616 -0.282966 0.772403 -160.815740
USER    NEWDPF quat0 -0.568616 -0.282966 0.772403 -160.815740
USER    NEWDPF dihe0 146.42 161.26 169.73 -53.96 179.77 -24.48 30.98 -93.45 30.63 
USER  keepresnum = 1 
USER  
REMARK  9 active torsions:
REMARK  status: ('A' for Active; 'I' for Inactive)
REMARK    1  A    between atoms: C1_1  and  C2_2 
REMARK    2  A    between atoms: C1_1  and  C3_3 
REMARK    3  A    between atoms: C2_2  and  C4_4 
REMARK    4  A    between atoms: C3_3  and  C5_5 
REMARK    5  A    between atoms: C4_4  and  C6_6 
REMARK    6  A    between atoms: C5_5  and  C7_7 
REMARK    7  A    between atoms: C6_6  and  C8_8 
REMARK    8  A    between atoms: C7_7  and  C9_9 
REMARK    9  A    between atoms: C8_8  and  C10_10 
USER                              x       y       z     vdW  Elec       q    Type
USER                           _______ _______ _______ _____ _____    ______ ____
ROOT
ATOM      1  C1  MOL C   1      27.975  38.396  29.539 -0.60 -0.00    +0.000 C 
ENDROOT
BRANCH   1   2
ATOM      2  C2  MOL C   1      27.879  39.797  28.919 -0.57 -0.00    +0.000 C 
BRANCH   2   3
ATOM      3  C4  MOL C   1      29.335  40.225  28.541 -0.55 -0.00    +0.000 C 
BRANCH   3   4
ATOM      4  C6  MOL C   1      29.605  41.807  28.751 -0.73 -0.00    +0.000 C 
BRANCH   4   5
ATOM      5  C8  MOL C   1      30.125  42.233  30.105 -0.72 +0.00    -0.000 C 
BRANCH   5   6
ATOM      6  C10 MOL C   1      29.778  41.135  31.105 -0.59 +0.01    -0.005 C 
ATOM      7  C12 MOL C   1      29.723  41.520  32.553 -0.61 -0.01    +0.005 C 
ENDBRANCH   5   6
ENDBRANCH   4   5
ENDBRANCH   3   4
ENDBRANCH   2   3
ENDBRANCH   1   2
BRANCH   1   8
ATOM      8  C3  MOL C   1      27.560  38.593  31.051 -0.52 -0.00    +0.000 C 
BRANCH   8   9
ATOM      9  C5  MOL C   1      26.111  37.849  31.300 -0.46 -0.00    +0.000 C 
BRANCH   9  10
ATOM     10  C7  MOL C   1      24.826  38.678  30.928 -0.47 +0.00    -0.000 C 
BRANCH  10  11
ATOM     11  C9  MOL C   1      23.677  37.858  30.243 -0.51 +0.00    -0.005 C 
ATOM     12  C11 MOL C   1      24.228  36.408  30.003 -0.60 -0.00    +0.005 C 
ENDBRANCH  10  11
ENDBRANCH   9  10
ENDBRANCH   8   9
ENDBRANCH   1   8
TORSDOF 9
TER
ENDMDL
MODEL        6
USER    Run = 6
USER    DPF = lac3.dpf
USER  
USER    Estimated Free Energy of Binding    =   -4.45 kcal/mol  [=(1)+(2)+(3)-(4)]
USER    Estimated Inhibition Constant, Ki   =  542.57 uM (micromolar)  [Temperature = 298.15 K]
USER    
USER    (1) Final Intermolecular Energy     =   -6.94 kcal/mol
USER        vdW + Hbond + desolv Energy     =   -6.94 kcal/mol
USER        Electrostatic Energy            =   +0.00 kcal/mol
USER    (2) Final Total Internal Energy     =   -0.49 kcal/mol
USER    (3) Torsional Free Energy           =   +2.68 kcal/mol
USER    (4) Unbound System's Energy         =   -0.29 kcal/mol
USER    
USER    
USER    NEWDPF move PE_ligand.pdbqt
USER    NEWDPF about 3.037000 5.209000 3.149000
USER    NEWDPF tran0 28.444161 37.688452 30.555515
USER    NEWDPF quaternion0 -0.770706 -0.210606 0.445408 -0.404065
USER    NEWDPF axisangle0 -0.842551 -0.230238 0.486928 -132.334892
USER    NEWDPF quat0 -0.842551 -0.230238 0.486928 -132.334892
USER    NEWDPF dihe0 -9.07 -33.18 76.29 126.44 167.87 176.12 -44.23 -113.28 164.59 
USER  keepresnum = 1 
USER  
REMARK  9 active torsions:
REMARK  status: ('A' for Active; 'I' for Inactive)
REMARK    1  A    between atoms: C1_1  and  C2_2 
REMARK    2  A    between atoms: C1_1  and  C3_3 
REMARK    3  A    between atoms: C2_2  and  C4_4 
REMARK    4  A    between atoms: C3_3  and  C5_5 
REMARK    5  A    between atoms: C4_4  and  C6_6 
REMARK    6  A    between atoms: C5_5  and  C7_7 
REMARK    7  A    between atoms: C6_6  and  C8_8 
REMARK    8  A    between atoms: C7_7  and  C9_9 
REMARK    9  A    between atoms: C8_8  and  C10_10 
USER                              x       y       z     vdW  Elec       q    Type
USER                           _______ _______ _______ _____ _____    ______ ____
ROOT
ATOM      1  C1  MOL C   1      27.707  37.431  29.691 -0.61 -0.00    +0.000 C 
ENDROOT
BRANCH   1   2
ATOM      2  C2  MOL C   1      28.722  38.583  29.719 -0.58 -0.00    +0.000 C 
BRANCH   2   3
ATOM      3  C4  MOL C   1      28.506  39.410  28.410 -0.59 -0.00    +0.000 C 
BRANCH   3   4
ATOM      4  C6  MOL C   1      28.627  41.007  28.642 -0.57 -0.00    +0.000 C 
BRANCH   4   5
ATOM      5  C8  MOL C   1      30.025  41.573  28.749 -0.71 +0.00    -0.000 C 
BRANCH   5   6
ATOM      6  C10 MOL C   1      30.204  42.111  30.164 -0.72 +0.01    -0.005 C 
ATOM      7  C12 MOL C   1      29.756  41.232  31.293 -0.62 -0.01    +0.005 C 
ENDBRANCH   5   6
ENDBRANCH   4   5
ENDBRANCH   3   4
ENDBRANCH   2   3
ENDBRANCH   1   2
BRANCH   1   8
ATOM      8  C3  MOL C   1      26.703  37.749  30.870 -0.49 -0.00    +0.000 C 
BRANCH   8   9
ATOM      9  C5  MOL C   1      25.448  38.630  30.269 -0.44 -0.00    +0.000 C 
BRANCH   9  10
ATOM     10  C7  MOL C   1      24.025  37.960  30.339 -0.52 +0.00    -0.000 C 
BRANCH  10  11
ATOM     11  C9  MOL C   1      23.995  36.422  30.033 -0.61 +0.00    -0.005 C 
ATOM     12  C11 MOL C   1      22.660  35.860  30.633 -0.47 -0.00    +0.005 C 
ENDBRANCH  10  11
ENDBRANCH   9  10
ENDBRANCH   8   9
ENDBRANCH   1   8
TORSDOF 9
TER
ENDMDL
MODEL        7
USER    Run = 7
USER    DPF = lac3.dpf
USER  
USER    Estimated Free Energy of Binding    =   -4.63 kcal/mol  [=(1)+(2)+(3)-(4)]
USER    Estimated Inhibition Constant, Ki   =  404.18 uM (micromolar)  [Temperature = 298.15 K]
USER    
USER    (1) Final Intermolecular Energy     =   -7.02 kcal/mol
USER        vdW + Hbond + desolv Energy     =   -7.02 kcal/mol
USER        Electrostatic Energy            =   -0.00 kcal/mol
USER    (2) Final Total Internal Energy     =   -0.58 kcal/mol
USER    (3) Torsional Free Energy           =   +2.68 kcal/mol
USER    (4) Unbound System's Energy         =   -0.29 kcal/mol
USER    
USER    
USER    NEWDPF move PE_ligand.pdbqt
USER    NEWDPF about 3.037000 5.209000 3.149000
USER    NEWDPF tran0 27.311091 38.660524 30.923368
USER    NEWDPF quaternion0 -0.803491 -0.522230 -0.044995 0.282228
USER    NEWDPF axisangle0 -0.837540 -0.544360 -0.046902 147.213507
USER    NEWDPF quat0 -0.837540 -0.544360 -0.046902 147.213507
USER    NEWDPF dihe0 46.81 180.00 90.13 24.64 159.33 -133.15 19.15 61.54 -135.24 
USER  keepresnum = 1 
USER  
REMARK  9 active torsions:
REMARK  status: ('A' for Active; 'I' for Inactive)
REMARK    1  A    between atoms: C1_1  and  C2_2 
REMARK    2  A    between atoms: C1_1  and  C3_3 
REMARK    3  A    between atoms: C2_2  and  C4_4 
REMARK    4  A    between atoms: C3_3  and  C5_5 
REMARK    5  A    between atoms: C4_4  and  C6_6 
REMARK    6  A    between atoms: C5_5  and  C7_7 
REMARK    7  A    between atoms: C6_6  and  C8_8 
REMARK    8  A    between atoms: C7_7  and  C9_9 
REMARK    9  A    between atoms: C8_8  and  C10_10 
USER                              x       y       z     vdW  Elec       q    Type
USER                           _______ _______ _______ _____ _____    ______ ____
ROOT
ATOM      1  C1  MOL C   1      28.254  37.999  30.752 -0.51 -0.00    +0.000 C 
ENDROOT
BRANCH   1   2
ATOM      2  C2  MOL C   1      28.104  39.489  30.412 -0.48 -0.00    +0.000 C 
BRANCH   2   3
ATOM      3  C4  MOL C   1      28.217  39.613  28.857 -0.65 -0.00    +0.000 C 
BRANCH   3   4
ATOM      4  C6  MOL C   1      28.688  41.083  28.372 -0.67 -0.00    +0.000 C 
BRANCH   4   5
ATOM      5  C8  MOL C   1      30.119  41.470  28.669 -0.64 +0.00    -0.000 C 
BRANCH   5   6
ATOM      6  C10 MOL C   1      30.113  42.373  29.898 -0.71 +0.01    -0.005 C 
ATOM      7  C12 MOL C   1      30.519  41.756  31.203 -0.72 -0.01    +0.005 C 
ENDBRANCH   5   6
ENDBRANCH   4   5
ENDBRANCH   3   4
ENDBRANCH   2   3
ENDBRANCH   1   2
BRANCH   1   8
ATOM      8  C3  MOL C   1      27.192  37.267  29.838 -0.58 -0.00    +0.000 C 
BRANCH   8   9
ATOM      9  C5  MOL C   1      25.796  37.090  30.694 -0.48 -0.00    +0.000 C 
BRANCH   9  10
ATOM     10  C7  MOL C   1      24.520  36.667  29.874 -0.58 +0.00    -0.000 C 
BRANCH  10  11
ATOM     11  C9  MOL C   1      23.184  37.363  30.310 -0.54 +0.00    -0.005 C 
ATOM     12  C11 MOL C   1      23.574  38.563  31.243 -0.47 -0.00    +0.005 C 
ENDBRANCH  10  11
ENDBRANCH   9  10
ENDBRANCH   8   9
ENDBRANCH   1   8
TORSDOF 9
TER
ENDMDL
MODEL        8
USER    Run = 8
USER    DPF = lac3.dpf
USER  
USER    Estimated Free Energy of Binding    =   -3.98 kcal/mol  [=(1)+(2)+(3)-(4)]
USER    Estimated Inhibition Constant, Ki   =    1.22 mM (millimolar)  [Temperature = 298.15 K]
USER    
USER    (1) Final Intermolecular Energy     =   -6.37 kcal/mol
USER        vdW + Hbond + desolv Energy     =   -6.37 kcal/mol
USER        Electrostatic Energy            =   +0.00 kcal/mol
USER    (2) Final Total Internal Energy     =   -0.58 kcal/mol
USER    (3) Torsional Free Energy           =   +2.68 kcal/mol
USER    (4) Unbound System's Energy         =   -0.29 kcal/mol
USER    
USER    
USER    NEWDPF move PE_ligand.pdbqt
USER    NEWDPF about 3.037000 5.209000 3.149000
USER    NEWDPF tran0 26.914742 37.919336 30.042664
USER    NEWDPF quaternion0 0.794899 -0.232108 -0.549673 -0.110099
USER    NEWDPF axisangle0 0.799761 -0.233528 -0.553035 -167.357951
USER    NEWDPF quat0 0.799761 -0.233528 -0.553035 -167.357951
USER    NEWDPF dihe0 47.24 -180.00 -180.00 56.94 3.81 109.23 133.29 -64.06 20.88 
USER  keepresnum = 1 
USER  
REMARK  9 active torsions:
REMARK  status: ('A' for Active; 'I' for Inactive)
REMARK    1  A    between atoms: C1_1  and  C2_2 
REMARK    2  A    between atoms: C1_1  and  C3_3 
REMARK    3  A    between atoms: C2_2  and  C4_4 
REMARK    4  A    between atoms: C3_3  and  C5_5 
REMARK    5  A    between atoms: C4_4  and  C6_6 
REMARK    6  A    between atoms: C5_5  and  C7_7 
REMARK    7  A    between atoms: C6_6  and  C8_8 
REMARK    8  A    between atoms: C7_7  and  C9_9 
REMARK    9  A    between atoms: C8_8  and  C10_10 
USER                              x       y       z     vdW  Elec       q    Type
USER                           _______ _______ _______ _____ _____    ______ ____
ROOT
ATOM      1  C1  MOL C   1      25.964  37.272  30.228 -0.55 -0.00    +0.000 C 
ENDROOT
BRANCH   1   2
ATOM      2  C2  MOL C   1      26.867  37.242  28.987 -0.59 -0.00    +0.000 C 
BRANCH   2   3
ATOM      3  C4  MOL C   1      28.341  37.355  29.497 -0.62 -0.00    +0.000 C 
BRANCH   3   4
ATOM      4  C6  MOL C   1      28.520  38.442  30.682 -0.53 -0.00    +0.000 C 
BRANCH   4   5
ATOM      5  C8  MOL C   1      28.737  39.878  30.260 -0.52 +0.00    -0.000 C 
BRANCH   5   6
ATOM      6  C10 MOL C   1      28.999  39.888  28.758 -0.63 +0.00    -0.005 C 
ATOM      7  C12 MOL C   1      27.870  40.314  27.868 -0.69 -0.00    +0.005 C 
ENDBRANCH   5   6
ENDBRANCH   4   5
ENDBRANCH   3   4
ENDBRANCH   2   3
ENDBRANCH   1   2
BRANCH   1   8
ATOM      8  C3  MOL C   1      25.355  38.731  30.249 -0.42 -0.00    +0.000 C 
BRANCH   8   9
ATOM      9  C5  MOL C   1      23.780  38.636  30.722 -0.52 -0.00    +0.000 C 
BRANCH   9  10
ATOM     10  C7  MOL C   1      23.489  37.800  32.023 -0.38 +0.00    -0.000 C 
BRANCH  10  11
ATOM     11  C9  MOL C   1      22.765  36.428  31.788 -0.39 +0.00    -0.005 C 
ATOM     12  C11 MOL C   1      22.844  36.125  30.251 -0.53 -0.00    +0.005 C 
ENDBRANCH  10  11
ENDBRANCH   9  10
ENDBRANCH   8   9
ENDBRANCH   1   8
TORSDOF 9
TER
ENDMDL
MODEL        9
USER    Run = 9
USER    DPF = lac3.dpf
USER  
USER    Estimated Free Energy of Binding    =   -4.52 kcal/mol  [=(1)+(2)+(3)-(4)]
USER    Estimated Inhibition Constant, Ki   =  483.65 uM (micromolar)  [Temperature = 298.15 K]
USER    
USER    (1) Final Intermolecular Energy     =   -6.99 kcal/mol
USER        vdW + Hbond + desolv Energy     =   -6.99 kcal/mol
USER        Electrostatic Energy            =   -0.00 kcal/mol
USER    (2) Final Total Internal Energy     =   -0.51 kcal/mol
USER    (3) Torsional Free Energy           =   +2.68 kcal/mol
USER    (4) Unbound System's Energy         =   -0.29 kcal/mol
USER    
USER    
USER    NEWDPF move PE_ligand.pdbqt
USER    NEWDPF about 3.037000 5.209000 3.149000
USER    NEWDPF tran0 26.903132 38.332982 29.487443
USER    NEWDPF quaternion0 0.705896 -0.199013 0.661071 -0.158399
USER    NEWDPF axisangle0 0.714922 -0.201557 0.669523 -161.771997
USER    NEWDPF quat0 0.714922 -0.201557 0.669523 -161.771997
USER    NEWDPF dihe0 56.30 -29.69 179.55 180.00 -140.09 172.50 104.60 65.19 72.13 
USER  keepresnum = 1 
USER  
REMARK  9 active torsions:
REMARK  status: ('A' for Active; 'I' for Inactive)
REMARK    1  A    between atoms: C1_1  and  C2_2 
REMARK    2  A    between atoms: C1_1  and  C3_3 
REMARK    3  A    between atoms: C2_2  and  C4_4 
REMARK    4  A    between atoms: C3_3  and  C5_5 
REMARK    5  A    between atoms: C4_4  and  C6_6 
REMARK    6  A    between atoms: C5_5  and  C7_7 
REMARK    7  A    between atoms: C6_6  and  C8_8 
REMARK    8  A    between atoms: C7_7  and  C9_9 
REMARK    9  A    between atoms: C8_8  and  C10_10 
USER                              x       y       z     vdW  Elec       q    Type
USER                           _______ _______ _______ _____ _____    ______ ____
ROOT
ATOM      1  C1  MOL C   1      27.128  37.208  29.287 -0.62 -0.00    +0.000 C 
ENDROOT
BRANCH   1   2
ATOM      2  C2  MOL C   1      27.220  37.936  30.635 -0.53 -0.00    +0.000 C 
BRANCH   2   3
ATOM      3  C4  MOL C   1      25.828  37.778  31.331 -0.47 -0.00    +0.000 C 
BRANCH   3   4
ATOM      4  C6  MOL C   1      24.661  38.644  30.617 -0.50 -0.00    +0.000 C 
BRANCH   4   5
ATOM      5  C8  MOL C   1      23.377  37.915  30.293 -0.49 +0.00    -0.000 C 
BRANCH   5   6
ATOM      6  C10 MOL C   1      23.625  36.423  30.489 -0.58 +0.00    -0.005 C 
ATOM      7  C12 MOL C   1      22.913  35.754  31.627 -0.40 -0.00    +0.005 C 
ENDBRANCH   5   6
ENDBRANCH   4   5
ENDBRANCH   3   4
ENDBRANCH   2   3
ENDBRANCH   1   2
BRANCH   1   8
ATOM      8  C3  MOL C   1      28.213  37.909  28.375 -0.61 -0.00    +0.000 C 
BRANCH   8   9
ATOM      9  C5  MOL C   1      27.505  39.174  27.593 -0.69 -0.00    +0.000 C 
BRANCH   9  10
ATOM     10  C7  MOL C   1      28.000  40.612  27.998 -0.69 +0.00    -0.000 C 
BRANCH  10  11
ATOM     11  C9  MOL C   1      29.333  40.652  28.823 -0.67 +0.00    -0.005 C 
ATOM     12  C11 MOL C   1      29.868  42.126  28.761 -0.74 -0.01    +0.005 C 
ENDBRANCH  10  11
ENDBRANCH   9  10
ENDBRANCH   8   9
ENDBRANCH   1   8
TORSDOF 9
TER
ENDMDL
MODEL       10
USER    Run = 10
USER    DPF = lac3.dpf
USER  
USER    Estimated Free Energy of Binding    =   -4.70 kcal/mol  [=(1)+(2)+(3)-(4)]
USER    Estimated Inhibition Constant, Ki   =  359.60 uM (micromolar)  [Temperature = 298.15 K]
USER    
USER    (1) Final Intermolecular Energy     =   -6.85 kcal/mol
USER        vdW + Hbond + desolv Energy     =   -6.84 kcal/mol
USER        Electrostatic Energy            =   -0.00 kcal/mol
USER    (2) Final Total Internal Energy     =   -0.82 kcal/mol
USER    (3) Torsional Free Energy           =   +2.68 kcal/mol
USER    (4) Unbound System's Energy         =   -0.29 kcal/mol
USER    
USER    
USER    NEWDPF move PE_ligand.pdbqt
USER    NEWDPF about 3.037000 5.209000 3.149000
USER    NEWDPF tran0 27.840086 36.874684 30.484062
USER    NEWDPF quaternion0 -0.528926 0.561456 0.374879 -0.514267
USER    NEWDPF axisangle0 -0.616730 0.654659 0.437110 -118.103111
USER    NEWDPF quat0 -0.616730 0.654659 0.437110 -118.103111
USER    NEWDPF dihe0 158.42 75.59 136.98 -111.14 -135.11 -116.44 174.05 -20.09 -178.53 
USER  keepresnum = 1 
USER  
REMARK  9 active torsions:
REMARK  status: ('A' for Active; 'I' for Inactive)
REMARK    1  A    between atoms: C1_1  and  C2_2 
REMARK    2  A    between atoms: C1_1  and  C3_3 
REMARK    3  A    between atoms: C2_2  and  C4_4 
REMARK    4  A    between atoms: C3_3  and  C5_5 
REMARK    5  A    between atoms: C4_4  and  C6_6 
REMARK    6  A    between atoms: C5_5  and  C7_7 
REMARK    7  A    between atoms: C6_6  and  C8_8 
REMARK    8  A    between atoms: C7_7  and  C9_9 
REMARK    9  A    between atoms: C8_8  and  C10_10 
USER                              x       y       z     vdW  Elec       q    Type
USER                           _______ _______ _______ _____ _____    ______ ____
ROOT
ATOM      1  C1  MOL C   1      27.109  37.770  30.338 -0.56 -0.00    +0.000 C 
ENDROOT
BRANCH   1   2
ATOM      2  C2  MOL C   1      27.872  37.019  29.237 -0.62 -0.00    +0.000 C 
BRANCH   2   3
ATOM      3  C4  MOL C   1      27.930  37.970  27.997 -0.57 -0.00    +0.000 C 
BRANCH   3   4
ATOM      4  C6  MOL C   1      27.166  39.376  28.241 -0.62 -0.00    +0.000 C 
BRANCH   4   5
ATOM      5  C8  MOL C   1      27.882  40.626  27.780 -0.61 +0.00    -0.000 C 
BRANCH   5   6
ATOM      6  C10 MOL C   1      29.270  40.629  28.411 -0.68 +0.00    -0.005 C 
ATOM      7  C12 MOL C   1      29.851  41.961  28.782 -0.74 -0.01    +0.005 C 
ENDBRANCH   5   6
ENDBRANCH   4   5
ENDBRANCH   3   4
ENDBRANCH   2   3
ENDBRANCH   1   2
BRANCH   1   8
ATOM      8  C3  MOL C   1      28.233  38.431  31.231 -0.53 -0.00    +0.000 C 
BRANCH   8   9
ATOM      9  C5  MOL C   1      27.518  39.155  32.526 -0.43 -0.00    +0.000 C 
BRANCH   9  10
ATOM     10  C7  MOL C   1      28.467  39.959  33.491 -0.40 +0.00    -0.000 C 
BRANCH  10  11
ATOM     11  C9  MOL C   1      28.792  41.425  33.039 -0.45 +0.00    -0.005 C 
ATOM     12  C11 MOL C   1      30.096  41.359  32.169 -0.63 -0.01    +0.005 C 
ENDBRANCH  10  11
ENDBRANCH   9  10
ENDBRANCH   8   9
ENDBRANCH   1   8
TORSDOF 9
TER
ENDMDL
MODEL       11
USER    Run = 11
USER    DPF = lac3.dpf
USER  
USER    Estimated Free Energy of Binding    =   -4.04 kcal/mol  [=(1)+(2)+(3)-(4)]
USER    Estimated Inhibition Constant, Ki   =    1.09 mM (millimolar)  [Temperature = 298.15 K]
USER    
USER    (1) Final Intermolecular Energy     =   -6.21 kcal/mol
USER        vdW + Hbond + desolv Energy     =   -6.21 kcal/mol
USER        Electrostatic Energy            =   -0.00 kcal/mol
USER    (2) Final Total Internal Energy     =   -0.80 kcal/mol
USER    (3) Torsional Free Energy           =   +2.68 kcal/mol
USER    (4) Unbound System's Energy         =   -0.29 kcal/mol
USER    
USER    
USER    NEWDPF move PE_ligand.pdbqt
USER    NEWDPF about 3.037000 5.209000 3.149000
USER    NEWDPF tran0 26.667049 37.262143 30.658267
USER    NEWDPF quaternion0 -0.738860 0.351146 0.530304 -0.222620
USER    NEWDPF axisangle0 -0.757879 0.360185 0.543954 -154.274094
USER    NEWDPF quat0 -0.757879 0.360185 0.543954 -154.274094
USER    NEWDPF dihe0 -157.15 172.81 -38.62 74.16 178.16 -110.12 33.40 41.57 -46.39 
USER  keepresnum = 1 
USER  
REMARK  9 active torsions:
REMARK  status: ('A' for Active; 'I' for Inactive)
REMARK    1  A    between atoms: C1_1  and  C2_2 
REMARK    2  A    between atoms: C1_1  and  C3_3 
REMARK    3  A    between atoms: C2_2  and  C4_4 
REMARK    4  A    between atoms: C3_3  and  C5_5 
REMARK    5  A    between atoms: C4_4  and  C6_6 
REMARK    6  A    between atoms: C5_5  and  C7_7 
REMARK    7  A    between atoms: C6_6  and  C8_8 
REMARK    8  A    between atoms: C7_7  and  C9_9 
REMARK    9  A    between atoms: C8_8  and  C10_10 
USER                              x       y       z     vdW  Elec       q    Type
USER                           _______ _______ _______ _____ _____    ______ ____
ROOT
ATOM      1  C1  MOL C   1      25.508  37.252  30.542 -0.54 -0.00    +0.000 C 
ENDROOT
BRANCH   1   2
ATOM      2  C2  MOL C   1      26.545  37.100  29.420 -0.56 -0.00    +0.000 C 
BRANCH   2   3
ATOM      3  C4  MOL C   1      27.838  37.840  29.894 -0.61 -0.00    +0.000 C 
BRANCH   3   4
ATOM      4  C6  MOL C   1      28.593  38.626  28.698 -0.57 -0.00    +0.000 C 
BRANCH   4   5
ATOM      5  C8  MOL C   1      28.159  40.052  28.443 -0.69 +0.00    -0.000 C 
BRANCH   5   6
ATOM      6  C10 MOL C   1      29.413  40.917  28.378 -0.67 +0.00    -0.005 C 
ATOM      7  C12 MOL C   1      29.750  41.729  29.593 -0.66 -0.01    +0.005 C 
ENDBRANCH   5   6
ENDBRANCH   4   5
ENDBRANCH   3   4
ENDBRANCH   2   3
ENDBRANCH   1   2
BRANCH   1   8
ATOM      8  C3  MOL C   1      25.748  38.703  31.120 -0.41 -0.00    +0.000 C 
BRANCH   8   9
ATOM      9  C5  MOL C   1      26.311  38.568  32.662 -0.36 -0.00    +0.000 C 
BRANCH   9  10
ATOM     10  C7  MOL C   1      26.376  39.898  33.503 -0.32 +0.00    -0.000 C 
BRANCH  10  11
ATOM     11  C9  MOL C   1      27.738  40.672  33.424 -0.36 +0.00    -0.005 C 
ATOM     12  C11 MOL C   1      28.624  39.937  32.358 -0.46 -0.01    +0.005 C 
ENDBRANCH  10  11
ENDBRANCH   9  10
ENDBRANCH   8   9
ENDBRANCH   1   8
TORSDOF 9
TER
ENDMDL
MODEL       12
USER    Run = 12
USER    DPF = lac3.dpf
USER  
USER    Estimated Free Energy of Binding    =   -4.37 kcal/mol  [=(1)+(2)+(3)-(4)]
USER    Estimated Inhibition Constant, Ki   =  624.11 uM (micromolar)  [Temperature = 298.15 K]
USER    
USER    (1) Final Intermolecular Energy     =   -6.56 kcal/mol
USER        vdW + Hbond + desolv Energy     =   -6.57 kcal/mol
USER        Electrostatic Energy            =   +0.00 kcal/mol
USER    (2) Final Total Internal Energy     =   -0.78 kcal/mol
USER    (3) Torsional Free Energy           =   +2.68 kcal/mol
USER    (4) Unbound System's Energy         =   -0.29 kcal/mol
USER    
USER    
USER    NEWDPF move PE_ligand.pdbqt
USER    NEWDPF about 3.037000 5.209000 3.149000
USER    NEWDPF tran0 27.335433 39.451878 31.221175
USER    NEWDPF quaternion0 0.107190 -0.420699 0.816547 0.380491
USER    NEWDPF axisangle0 0.115909 -0.454916 0.882959 135.271786
USER    NEWDPF quat0 0.115909 -0.454916 0.882959 135.271786
USER    NEWDPF dihe0 -170.79 89.88 151.26 -72.13 -174.36 -15.54 -177.69 41.27 53.90 
USER  keepresnum = 1 
USER  
REMARK  9 active torsions:
REMARK  status: ('A' for Active; 'I' for Inactive)
REMARK    1  A    between atoms: C1_1  and  C2_2 
REMARK    2  A    between atoms: C1_1  and  C3_3 
REMARK    3  A    between atoms: C2_2  and  C4_4 
REMARK    4  A    between atoms: C3_3  and  C5_5 
REMARK    5  A    between atoms: C4_4  and  C6_6 
REMARK    6  A    between atoms: C5_5  and  C7_7 
REMARK    7  A    between atoms: C6_6  and  C8_8 
REMARK    8  A    between atoms: C7_7  and  C9_9 
REMARK    9  A    between atoms: C8_8  and  C10_10 
USER                              x       y       z     vdW  Elec       q    Type
USER                           _______ _______ _______ _____ _____    ______ ____
ROOT
ATOM      1  C1  MOL C   1      28.252  38.757  31.036 -0.55 -0.00    +0.000 C 
ENDROOT
BRANCH   1   2
ATOM      2  C2  MOL C   1      26.786  38.324  31.176 -0.49 -0.00    +0.000 C 
BRANCH   2   3
ATOM      3  C4  MOL C   1      26.061  38.749  29.856 -0.40 -0.00    +0.000 C 
BRANCH   3   4
ATOM      4  C6  MOL C   1      27.075  39.318  28.731 -0.53 -0.00    +0.000 C 
BRANCH   4   5
ATOM      5  C8  MOL C   1      27.545  38.336  27.682 -0.57 +0.00    -0.000 C 
BRANCH   5   6
ATOM      6  C10 MOL C   1      27.799  37.001  28.373 -0.62 +0.00    -0.005 C 
ATOM      7  C12 MOL C   1      29.212  36.498  28.395 -0.60 -0.00    +0.005 C 
ENDBRANCH   5   6
ENDBRANCH   4   5
ENDBRANCH   3   4
ENDBRANCH   2   3
ENDBRANCH   1   2
BRANCH   1   8
ATOM      8  C3  MOL C   1      28.622  39.391  32.436 -0.39 -0.00    +0.000 C 
BRANCH   8   9
ATOM      9  C5  MOL C   1      28.902  41.001  32.227 -0.39 -0.00    +0.000 C 
BRANCH   9  10
ATOM     10  C7  MOL C   1      30.270  41.391  31.554 -0.66 +0.00    -0.000 C 
BRANCH  10  11
ATOM     11  C9  MOL C   1      30.151  42.239  30.240 -0.70 +0.01    -0.005 C 
ATOM     12  C11 MOL C   1      29.732  41.254  29.093 -0.66 -0.01    +0.005 C 
ENDBRANCH  10  11
ENDBRANCH   9  10
ENDBRANCH   8   9
ENDBRANCH   1   8
TORSDOF 9
TER
ENDMDL
MODEL       13
USER    Run = 13
USER    DPF = lac3.dpf
USER  
USER    Estimated Free Energy of Binding    =   -4.80 kcal/mol  [=(1)+(2)+(3)-(4)]
USER    Estimated Inhibition Constant, Ki   =  303.22 uM (micromolar)  [Temperature = 298.15 K]
USER    
USER    (1) Final Intermolecular Energy     =   -7.06 kcal/mol
USER        vdW + Hbond + desolv Energy     =   -7.06 kcal/mol
USER        Electrostatic Energy            =   +0.00 kcal/mol
USER    (2) Final Total Internal Energy     =   -0.71 kcal/mol
USER    (3) Torsional Free Energy           =   +2.68 kcal/mol
USER    (4) Unbound System's Energy         =   -0.29 kcal/mol
USER    
USER    
USER    NEWDPF move PE_ligand.pdbqt
USER    NEWDPF about 3.037000 5.209000 3.149000
USER    NEWDPF tran0 28.202863 40.202952 28.716811
USER    NEWDPF quaternion0 0.372174 -0.839750 0.005988 0.395311
USER    NEWDPF axisangle0 0.405177 -0.914215 0.006519 133.429265
USER    NEWDPF quat0 0.405177 -0.914215 0.006519 133.429265
USER    NEWDPF dihe0 14.48 45.79 -136.98 103.88 -116.81 -171.64 83.24 -1.44 25.64 
USER  keepresnum = 1 
USER  
REMARK  9 active torsions:
REMARK  status: ('A' for Active; 'I' for Inactive)
REMARK    1  A    between atoms: C1_1  and  C2_2 
REMARK    2  A    between atoms: C1_1  and  C3_3 
REMARK    3  A    between atoms: C2_2  and  C4_4 
REMARK    4  A    between atoms: C3_3  and  C5_5 
REMARK    5  A    between atoms: C4_4  and  C6_6 
REMARK    6  A    between atoms: C5_5  and  C7_7 
REMARK    7  A    between atoms: C6_6  and  C8_8 
REMARK    8  A    between atoms: C7_7  and  C9_9 
REMARK    9  A    between atoms: C8_8  and  C10_10 
USER                              x       y       z     vdW  Elec       q    Type
USER                           _______ _______ _______ _____ _____    ______ ____
ROOT
ATOM      1  C1  MOL C   1      28.211  41.121  28.000 -0.61 -0.00    +0.000 C 
ENDROOT
BRANCH   1   2
ATOM      2  C2  MOL C   1      27.881  39.669  27.627 -0.67 -0.00    +0.000 C 
BRANCH   2   3
ATOM      3  C4  MOL C   1      26.920  39.124  28.735 -0.52 -0.00    +0.000 C 
BRANCH   3   4
ATOM      4  C6  MOL C   1      27.702  38.386  29.945 -0.58 -0.00    +0.000 C 
BRANCH   4   5
ATOM      5  C8  MOL C   1      27.012  38.372  31.290 -0.49 +0.00    -0.000 C 
BRANCH   5   6
ATOM      6  C10 MOL C   1      25.508  38.322  31.043 -0.47 +0.00    -0.005 C 
ATOM      7  C12 MOL C   1      24.947  37.045  30.492 -0.55 -0.00    +0.005 C 
ENDBRANCH   5   6
ENDBRANCH   4   5
ENDBRANCH   3   4
ENDBRANCH   2   3
ENDBRANCH   1   2
BRANCH   1   8
ATOM      8  C3  MOL C   1      29.719  41.085  28.474 -0.64 -0.00    +0.000 C 
BRANCH   8   9
ATOM      9  C5  MOL C   1      29.990  42.373  29.463 -0.68 -0.00    +0.000 C 
BRANCH   9  10
ATOM     10  C7  MOL C   1      30.658  42.059  30.854 -0.71 +0.00    -0.000 C 
BRANCH  10  11
ATOM     11  C9  MOL C   1      29.828  41.120  31.797 -0.62 +0.01    -0.005 C 
ATOM     12  C11 MOL C   1      29.552  41.921  33.117 -0.52 -0.00    +0.005 C 
ENDBRANCH  10  11
ENDBRANCH   9  10
ENDBRANCH   8   9
ENDBRANCH   1   8
TORSDOF 9
TER
ENDMDL
MODEL       14
USER    Run = 14
USER    DPF = lac3.dpf
USER  
USER    Estimated Free Energy of Binding    =   -4.51 kcal/mol  [=(1)+(2)+(3)-(4)]
USER    Estimated Inhibition Constant, Ki   =  492.55 uM (micromolar)  [Temperature = 298.15 K]
USER    
USER    (1) Final Intermolecular Energy     =   -7.02 kcal/mol
USER        vdW + Hbond + desolv Energy     =   -7.02 kcal/mol
USER        Electrostatic Energy            =   +0.00 kcal/mol
USER    (2) Final Total Internal Energy     =   -0.46 kcal/mol
USER    (3) Torsional Free Energy           =   +2.68 kcal/mol
USER    (4) Unbound System's Energy         =   -0.29 kcal/mol
USER    
USER    
USER    NEWDPF move PE_ligand.pdbqt
USER    NEWDPF about 3.037000 5.209000 3.149000
USER    NEWDPF tran0 28.041394 39.163591 29.749242
USER    NEWDPF quaternion0 -0.586367 -0.743960 0.256334 0.192328
USER    NEWDPF axisangle0 -0.597522 -0.758113 0.261211 157.822615
USER    NEWDPF quat0 -0.597522 -0.758113 0.261211 157.822615
USER    NEWDPF dihe0 105.34 -24.28 -84.29 -85.39 15.53 154.38 130.42 85.19 119.32 
USER  keepresnum = 1 
USER  
REMARK  9 active torsions:
REMARK  status: ('A' for Active; 'I' for Inactive)
REMARK    1  A    between atoms: C1_1  and  C2_2 
REMARK    2  A    between atoms: C1_1  and  C3_3 
REMARK    3  A    between atoms: C2_2  and  C4_4 
REMARK    4  A    between atoms: C3_3  and  C5_5 
REMARK    5  A    between atoms: C4_4  and  C6_6 
REMARK    6  A    between atoms: C5_5  and  C7_7 
REMARK    7  A    between atoms: C6_6  and  C8_8 
REMARK    8  A    between atoms: C7_7  and  C9_9 
REMARK    9  A    between atoms: C8_8  and  C10_10 
USER                              x       y       z     vdW  Elec       q    Type
USER                           _______ _______ _______ _____ _____    ______ ____
ROOT
ATOM      1  C1  MOL C   1      28.908  38.777  29.073 -0.56 -0.00    +0.000 C 
ENDROOT
BRANCH   1   2
ATOM      2  C2  MOL C   1      27.894  39.877  28.727 -0.63 -0.00    +0.000 C 
BRANCH   2   3
ATOM      3  C4  MOL C   1      28.688  41.014  28.005 -0.59 -0.00    +0.000 C 
BRANCH   3   4
ATOM      4  C6  MOL C   1      30.082  41.380  28.742 -0.65 -0.00    +0.000 C 
BRANCH   4   5
ATOM      5  C8  MOL C   1      29.982  42.160  30.033 -0.64 +0.00    -0.000 C 
BRANCH   5   6
ATOM      6  C10 MOL C   1      29.755  41.162  31.164 -0.60 +0.01    -0.005 C 
ATOM      7  C12 MOL C   1      30.057  41.626  32.558 -0.61 -0.01    +0.005 C 
ENDBRANCH   5   6
ENDBRANCH   4   5
ENDBRANCH   3   4
ENDBRANCH   2   3
ENDBRANCH   1   2
BRANCH   1   8
ATOM      8  C3  MOL C   1      28.041  37.467  29.245 -0.65 -0.00    +0.000 C 
BRANCH   8   9
ATOM      9  C5  MOL C   1      27.139  37.609  30.616 -0.51 -0.00    +0.000 C 
BRANCH   9  10
ATOM     10  C7  MOL C   1      25.672  38.151  30.436 -0.51 +0.00    -0.000 C 
BRANCH  10  11
ATOM     11  C9  MOL C   1      24.537  37.091  30.653 -0.55 +0.00    -0.005 C 
ATOM     12  C11 MOL C   1      23.180  37.877  30.709 -0.51 -0.00    +0.005 C 
ENDBRANCH  10  11
ENDBRANCH   9  10
ENDBRANCH   8   9
ENDBRANCH   1   8
TORSDOF 9
TER
ENDMDL
MODEL       15
USER    Run = 15
USER    DPF = lac3.dpf
USER  
USER    Estimated Free Energy of Binding    =   -3.71 kcal/mol  [=(1)+(2)+(3)-(4)]
USER    Estimated Inhibition Constant, Ki   =    1.92 mM (millimolar)  [Temperature = 298.15 K]
USER    
USER    (1) Final Intermolecular Energy     =   -6.18 kcal/mol
USER        vdW + Hbond + desolv Energy     =   -6.18 kcal/mol
USER        Electrostatic Energy            =   +0.00 kcal/mol
USER    (2) Final Total Internal Energy     =   -0.50 kcal/mol
USER    (3) Torsional Free Energy           =   +2.68 kcal/mol
USER    (4) Unbound System's Energy         =   -0.29 kcal/mol
USER    
USER    
USER    NEWDPF move PE_ligand.pdbqt
USER    NEWDPF about 3.037000 5.209000 3.149000
USER    NEWDPF tran0 27.989545 38.277852 31.976721
USER    NEWDPF quaternion0 -0.464942 -0.560185 -0.127599 -0.673602
USER    NEWDPF axisangle0 -0.629071 -0.757935 -0.172643 -95.308582
USER    NEWDPF quat0 -0.629071 -0.757935 -0.172643 -95.308582
USER    NEWDPF dihe0 -121.41 41.93 -18.93 118.46 -16.82 -100.34 -177.55 60.53 144.54 
USER  keepresnum = 1 
USER  
REMARK  9 active torsions:
REMARK  status: ('A' for Active; 'I' for Inactive)
REMARK    1  A    between atoms: C1_1  and  C2_2 
REMARK    2  A    between atoms: C1_1  and  C3_3 
REMARK    3  A    between atoms: C2_2  and  C4_4 
REMARK    4  A    between atoms: C3_3  and  C5_5 
REMARK    5  A    between atoms: C4_4  and  C6_6 
REMARK    6  A    between atoms: C5_5  and  C7_7 
REMARK    7  A    between atoms: C6_6  and  C8_8 
REMARK    8  A    between atoms: C7_7  and  C9_9 
REMARK    9  A    between atoms: C8_8  and  C10_10 
USER                              x       y       z     vdW  Elec       q    Type
USER                           _______ _______ _______ _____ _____    ______ ____
ROOT
ATOM      1  C1  MOL C   1      28.077  39.293  31.412 -0.50 -0.00    +0.000 C 
ENDROOT
BRANCH   1   2
ATOM      2  C2  MOL C   1      28.250  39.064  32.920 -0.39 -0.00    +0.000 C 
BRANCH   2   3
ATOM      3  C4  MOL C   1      28.960  40.334  33.493 -0.41 -0.00    +0.000 C 
BRANCH   3   4
ATOM      4  C6  MOL C   1      29.113  41.520  32.402 -0.43 -0.00    +0.000 C 
BRANCH   4   5
ATOM      5  C8  MOL C   1      30.498  41.753  31.843 -0.67 +0.00    -0.000 C 
BRANCH   5   6
ATOM      6  C10 MOL C   1      30.345  42.292  30.425 -0.66 +0.01    -0.005 C 
ATOM      7  C12 MOL C   1      29.748  41.372  29.403 -0.66 -0.01    +0.005 C 
ENDBRANCH   5   6
ENDBRANCH   4   5
ENDBRANCH   3   4
ENDBRANCH   2   3
ENDBRANCH   1   2
BRANCH   1   8
ATOM      8  C3  MOL C   1      26.575  38.901  31.113 -0.35 -0.00    +0.000 C 
BRANCH   8   9
ATOM      9  C5  MOL C   1      26.530  37.329  30.624 -0.49 -0.00    +0.000 C 
BRANCH   9  10
ATOM     10  C7  MOL C   1      25.249  36.882  29.824 -0.53 +0.00    -0.000 C 
BRANCH  10  11
ATOM     11  C9  MOL C   1      23.882  37.320  30.454 -0.55 +0.00    -0.005 C 
ATOM     12  C11 MOL C   1      23.027  36.019  30.647 -0.53 -0.00    +0.005 C 
ENDBRANCH  10  11
ENDBRANCH   9  10
ENDBRANCH   8   9
ENDBRANCH   1   8
TORSDOF 9
TER
ENDMDL
MODEL       16
USER    Run = 16
USER    DPF = lac3.dpf
USER  
USER    Estimated Free Energy of Binding    =   -4.74 kcal/mol  [=(1)+(2)+(3)-(4)]
USER    Estimated Inhibition Constant, Ki   =  332.67 uM (micromolar)  [Temperature = 298.15 K]
USER    
USER    (1) Final Intermolecular Energy     =   -7.21 kcal/mol
USER        vdW + Hbond + desolv Energy     =   -7.21 kcal/mol
USER        Electrostatic Energy            =   +0.00 kcal/mol
USER    (2) Final Total Internal Energy     =   -0.50 kcal/mol
USER    (3) Torsional Free Energy           =   +2.68 kcal/mol
USER    (4) Unbound System's Energy         =   -0.29 kcal/mol
USER    
USER    
USER    NEWDPF move PE_ligand.pdbqt
USER    NEWDPF about 3.037000 5.209000 3.149000
USER    NEWDPF tran0 27.623787 40.272476 29.018506
USER    NEWDPF quaternion0 -0.311832 0.832523 -0.334023 -0.313201
USER    NEWDPF axisangle0 -0.328352 0.876629 -0.351719 -143.495568
USER    NEWDPF quat0 -0.328352 0.876629 -0.351719 -143.495568
USER    NEWDPF dihe0 -25.29 -15.50 52.85 169.19 139.76 174.99 -30.66 6.07 -60.06 
USER  keepresnum = 1 
USER  
REMARK  9 active torsions:
REMARK  status: ('A' for Active; 'I' for Inactive)
REMARK    1  A    between atoms: C1_1  and  C2_2 
REMARK    2  A    between atoms: C1_1  and  C3_3 
REMARK    3  A    between atoms: C2_2  and  C4_4 
REMARK    4  A    between atoms: C3_3  and  C5_5 
REMARK    5  A    between atoms: C4_4  and  C6_6 
REMARK    6  A    between atoms: C5_5  and  C7_7 
REMARK    7  A    between atoms: C6_6  and  C8_8 
REMARK    8  A    between atoms: C7_7  and  C9_9 
REMARK    9  A    between atoms: C8_8  and  C10_10 
USER                              x       y       z     vdW  Elec       q    Type
USER                           _______ _______ _______ _____ _____    ______ ____
ROOT
ATOM      1  C1  MOL C   1      27.972  40.589  27.953 -0.67 -0.00    +0.000 C 
ENDROOT
BRANCH   1   2
ATOM      2  C2  MOL C   1      27.134  39.354  28.316 -0.61 -0.00    +0.000 C 
BRANCH   2   3
ATOM      3  C4  MOL C   1      27.741  38.767  29.632 -0.57 -0.00    +0.000 C 
BRANCH   3   4
ATOM      4  C6  MOL C   1      26.665  37.933  30.509 -0.53 -0.00    +0.000 C 
BRANCH   4   5
ATOM      5  C8  MOL C   1      25.867  36.877  29.778 -0.51 +0.00    -0.000 C 
BRANCH   5   6
ATOM      6  C10 MOL C   1      24.422  36.969  30.257 -0.58 +0.00    -0.005 C 
ATOM      7  C12 MOL C   1      23.926  38.318  30.684 -0.52 -0.00    +0.005 C 
ENDBRANCH   5   6
ENDBRANCH   4   5
ENDBRANCH   3   4
ENDBRANCH   2   3
ENDBRANCH   1   2
BRANCH   1   8
ATOM      8  C3  MOL C   1      29.359  40.364  28.678 -0.60 -0.00    +0.000 C 
BRANCH   8   9
ATOM      9  C5  MOL C   1      29.985  41.833  29.083 -0.74 -0.00    +0.000 C 
BRANCH   9  10
ATOM     10  C7  MOL C   1      30.137  42.129  30.622 -0.71 +0.00    -0.000 C 
BRANCH  10  11
ATOM     11  C9  MOL C   1      29.750  40.942  31.572 -0.60 +0.01    -0.005 C 
ATOM     12  C11 MOL C   1      30.021  41.422  33.040 -0.56 -0.01    +0.005 C 
ENDBRANCH  10  11
ENDBRANCH   9  10
ENDBRANCH   8   9
ENDBRANCH   1   8
TORSDOF 9
TER
ENDMDL
MODEL       17
USER    Run = 17
USER    DPF = lac3.dpf
USER  
USER    Estimated Free Energy of Binding    =   -4.63 kcal/mol  [=(1)+(2)+(3)-(4)]
USER    Estimated Inhibition Constant, Ki   =  403.32 uM (micromolar)  [Temperature = 298.15 K]
USER    
USER    (1) Final Intermolecular Energy     =   -6.85 kcal/mol
USER        vdW + Hbond + desolv Energy     =   -6.85 kcal/mol
USER        Electrostatic Energy            =   -0.00 kcal/mol
USER    (2) Final Total Internal Energy     =   -0.76 kcal/mol
USER    (3) Torsional Free Energy           =   +2.68 kcal/mol
USER    (4) Unbound System's Energy         =   -0.29 kcal/mol
USER    
USER    
USER    NEWDPF move PE_ligand.pdbqt
USER    NEWDPF about 3.037000 5.209000 3.149000
USER    NEWDPF tran0 29.277021 42.413202 29.890688
USER    NEWDPF quaternion0 -0.346275 -0.580446 0.321318 0.663273
USER    NEWDPF axisangle0 -0.462700 -0.775606 0.429353 96.900039
USER    NEWDPF quat0 -0.462700 -0.775606 0.429353 96.900039
USER    NEWDPF dihe0 -1.92 -63.45 -117.24 119.70 -96.73 -141.04 -67.35 -8.27 -117.72 
USER  keepresnum = 1 
USER  
REMARK  9 active torsions:
REMARK  status: ('A' for Active; 'I' for Inactive)
REMARK    1  A    between atoms: C1_1  and  C2_2 
REMARK    2  A    between atoms: C1_1  and  C3_3 
REMARK    3  A    between atoms: C2_2  and  C4_4 
REMARK    4  A    between atoms: C3_3  and  C5_5 
REMARK    5  A    between atoms: C4_4  and  C6_6 
REMARK    6  A    between atoms: C5_5  and  C7_7 
REMARK    7  A    between atoms: C6_6  and  C8_8 
REMARK    8  A    between atoms: C7_7  and  C9_9 
REMARK    9  A    between atoms: C8_8  and  C10_10 
USER                              x       y       z     vdW  Elec       q    Type
USER                           _______ _______ _______ _____ _____    ______ ____
ROOT
ATOM      1  C1  MOL C   1      30.406  42.270  30.140 -0.66 -0.00    +0.000 C 
ENDROOT
BRANCH   1   2
ATOM      2  C2  MOL C   1      29.748  42.147  28.758 -0.74 -0.00    +0.000 C 
BRANCH   2   3
ATOM      3  C4  MOL C   1      29.508  40.622  28.505 -0.61 -0.00    +0.000 C 
BRANCH   3   4
ATOM      4  C6  MOL C   1      27.941  40.244  28.354 -0.67 -0.00    +0.000 C 
BRANCH   4   5
ATOM      5  C8  MOL C   1      27.622  38.818  27.966 -0.65 +0.00    -0.000 C 
BRANCH   5   6
ATOM      6  C10 MOL C   1      28.362  37.895  28.928 -0.64 +0.00    -0.005 C 
ATOM      7  C12 MOL C   1      28.145  38.119  30.395 -0.57 -0.00    +0.005 C 
ENDBRANCH   5   6
ENDBRANCH   4   5
ENDBRANCH   3   4
ENDBRANCH   2   3
ENDBRANCH   1   2
BRANCH   1   8
ATOM      8  C3  MOL C   1      29.749  41.120  31.004 -0.59 -0.00    +0.000 C 
BRANCH   8   9
ATOM      9  C5  MOL C   1      30.032  41.432  32.597 -0.60 -0.00    +0.000 C 
BRANCH   9  10
ATOM     10  C7  MOL C   1      29.075  40.727  33.629 -0.44 +0.00    -0.000 C 
BRANCH  10  11
ATOM     11  C9  MOL C   1      27.548  40.796  33.279 -0.34 +0.00    -0.005 C 
ATOM     12  C11 MOL C   1      26.985  39.336  33.389 -0.35 -0.00    +0.005 C 
ENDBRANCH  10  11
ENDBRANCH   9  10
ENDBRANCH   8   9
ENDBRANCH   1   8
TORSDOF 9
TER
ENDMDL
MODEL       18
USER    Run = 18
USER    DPF = lac3.dpf
USER  
USER    Estimated Free Energy of Binding    =   -4.25 kcal/mol  [=(1)+(2)+(3)-(4)]
USER    Estimated Inhibition Constant, Ki   =  768.75 uM (micromolar)  [Temperature = 298.15 K]
USER    
USER    (1) Final Intermolecular Energy     =   -6.76 kcal/mol
USER        vdW + Hbond + desolv Energy     =   -6.77 kcal/mol
USER        Electrostatic Energy            =   +0.00 kcal/mol
USER    (2) Final Total Internal Energy     =   -0.46 kcal/mol
USER    (3) Torsional Free Energy           =   +2.68 kcal/mol
USER    (4) Unbound System's Energy         =   -0.29 kcal/mol
USER    
USER    
USER    NEWDPF move PE_ligand.pdbqt
USER    NEWDPF about 3.037000 5.209000 3.149000
USER    NEWDPF tran0 28.043635 39.352070 30.080067
USER    NEWDPF quaternion0 0.826859 0.026143 -0.242409 -0.506811
USER    NEWDPF axisangle0 0.959170 0.030326 -0.281198 -119.096652
USER    NEWDPF quat0 0.959170 0.030326 -0.281198 -119.096652
USER    NEWDPF dihe0 -159.75 -94.53 -93.75 179.08 -9.79 155.28 -38.28 -92.16 -41.19 
USER  keepresnum = 1 
USER  
REMARK  9 active torsions:
REMARK  status: ('A' for Active; 'I' for Inactive)
REMARK    1  A    between atoms: C1_1  and  C2_2 
REMARK    2  A    between atoms: C1_1  and  C3_3 
REMARK    3  A    between atoms: C2_2  and  C4_4 
REMARK    4  A    between atoms: C3_3  and  C5_5 
REMARK    5  A    between atoms: C4_4  and  C6_6 
REMARK    6  A    between atoms: C5_5  and  C7_7 
REMARK    7  A    between atoms: C6_6  and  C8_8 
REMARK    8  A    between atoms: C7_7  and  C9_9 
REMARK    9  A    between atoms: C8_8  and  C10_10 
USER                              x       y       z     vdW  Elec       q    Type
USER                           _______ _______ _______ _____ _____    ______ ____
ROOT
ATOM      1  C1  MOL C   1      27.917  38.303  30.571 -0.57 -0.00    +0.000 C 
ENDROOT
BRANCH   1   2
ATOM      2  C2  MOL C   1      28.988  38.716  29.552 -0.53 -0.00    +0.000 C 
BRANCH   2   3
ATOM      3  C4  MOL C   1      28.435  39.968  28.795 -0.66 -0.00    +0.000 C 
BRANCH   3   4
ATOM      4  C6  MOL C   1      29.594  41.018  28.374 -0.65 -0.00    +0.000 C 
BRANCH   4   5
ATOM      5  C8  MOL C   1      29.778  42.221  29.271 -0.67 +0.00    -0.000 C 
BRANCH   5   6
ATOM      6  C10 MOL C   1      30.495  41.756  30.534 -0.65 +0.01    -0.005 C 
ATOM      7  C12 MOL C   1      29.669  41.610  31.777 -0.58 -0.01    +0.005 C 
ENDBRANCH   5   6
ENDBRANCH   4   5
ENDBRANCH   3   4
ENDBRANCH   2   3
ENDBRANCH   1   2
BRANCH   1   8
ATOM      8  C3  MOL C   1      26.546  38.452  29.798 -0.52 -0.00    +0.000 C 
BRANCH   8   9
ATOM      9  C5  MOL C   1      25.894  36.953  29.591 -0.50 -0.00    +0.000 C 
BRANCH   9  10
ATOM     10  C7  MOL C   1      24.832  36.498  30.660 -0.50 +0.00    -0.000 C 
BRANCH  10  11
ATOM     11  C9  MOL C   1      24.287  37.639  31.588 -0.44 +0.00    -0.005 C 
ATOM     12  C11 MOL C   1      22.902  38.086  31.001 -0.48 -0.00    +0.005 C 
ENDBRANCH  10  11
ENDBRANCH   9  10
ENDBRANCH   8   9
ENDBRANCH   1   8
TORSDOF 9
TER
ENDMDL
MODEL       19
USER    Run = 19
USER    DPF = lac3.dpf
USER  
USER    Estimated Free Energy of Binding    =   -4.64 kcal/mol  [=(1)+(2)+(3)-(4)]
USER    Estimated Inhibition Constant, Ki   =  398.51 uM (micromolar)  [Temperature = 298.15 K]
USER    
USER    (1) Final Intermolecular Energy     =   -6.79 kcal/mol
USER        vdW + Hbond + desolv Energy     =   -6.78 kcal/mol
USER        Electrostatic Energy            =   -0.00 kcal/mol
USER    (2) Final Total Internal Energy     =   -0.82 kcal/mol
USER    (3) Torsional Free Energy           =   +2.68 kcal/mol
USER    (4) Unbound System's Energy         =   -0.29 kcal/mol
USER    
USER    
USER    NEWDPF move PE_ligand.pdbqt
USER    NEWDPF about 3.037000 5.209000 3.149000
USER    NEWDPF tran0 27.740811 37.620359 29.569887
USER    NEWDPF quaternion0 -0.827346 0.059922 0.484656 -0.277519
USER    NEWDPF axisangle0 -0.861173 0.062372 0.504471 -147.775668
USER    NEWDPF quat0 -0.861173 0.062372 0.504471 -147.775668
USER    NEWDPF dihe0 101.73 161.55 9.95 47.49 100.63 -108.86 -64.29 67.69 -145.83 
USER  keepresnum = 1 
USER  
REMARK  9 active torsions:
REMARK  status: ('A' for Active; 'I' for Inactive)
REMARK    1  A    between atoms: C1_1  and  C2_2 
REMARK    2  A    between atoms: C1_1  and  C3_3 
REMARK    3  A    between atoms: C2_2  and  C4_4 
REMARK    4  A    between atoms: C3_3  and  C5_5 
REMARK    5  A    between atoms: C4_4  and  C6_6 
REMARK    6  A    between atoms: C5_5  and  C7_7 
REMARK    7  A    between atoms: C6_6  and  C8_8 
REMARK    8  A    between atoms: C7_7  and  C9_9 
REMARK    9  A    between atoms: C8_8  and  C10_10 
USER                              x       y       z     vdW  Elec       q    Type
USER                           _______ _______ _______ _____ _____    ______ ____
ROOT
ATOM      1  C1  MOL C   1      26.777  37.259  29.024 -0.58 -0.00    +0.000 C 
ENDROOT
BRANCH   1   2
ATOM      2  C2  MOL C   1      28.015  37.898  28.377 -0.63 -0.00    +0.000 C 
BRANCH   2   3
ATOM      3  C4  MOL C   1      27.507  39.111  27.530 -0.68 -0.00    +0.000 C 
BRANCH   3   4
ATOM      4  C6  MOL C   1      28.145  40.523  28.000 -0.70 -0.00    +0.000 C 
BRANCH   4   5
ATOM      5  C8  MOL C   1      29.301  40.455  28.972 -0.61 +0.00    -0.000 C 
BRANCH   5   6
ATOM      6  C10 MOL C   1      29.754  41.882  29.259 -0.71 +0.01    -0.005 C 
ATOM      7  C12 MOL C   1      30.499  42.121  30.538 -0.74 -0.01    +0.005 C 
ENDBRANCH   5   6
ENDBRANCH   4   5
ENDBRANCH   3   4
ENDBRANCH   2   3
ENDBRANCH   1   2
BRANCH   1   8
ATOM      8  C3  MOL C   1      26.193  38.380  29.973 -0.51 -0.00    +0.000 C 
BRANCH   8   9
ATOM      9  C5  MOL C   1      26.939  38.269  31.438 -0.45 -0.00    +0.000 C 
BRANCH   9  10
ATOM     10  C7  MOL C   1      26.306  39.108  32.610 -0.37 +0.00    -0.000 C 
BRANCH  10  11
ATOM     11  C9  MOL C   1      27.241  40.207  33.225 -0.35 +0.00    -0.005 C 
ATOM     12  C11 MOL C   1      28.643  40.055  32.538 -0.45 -0.01    +0.005 C 
ENDBRANCH  10  11
ENDBRANCH   9  10
ENDBRANCH   8   9
ENDBRANCH   1   8
TORSDOF 9
TER
ENDMDL
MODEL       20
USER    Run = 20
USER    DPF = lac3.dpf
USER  
USER    Estimated Free Energy of Binding    =   -4.53 kcal/mol  [=(1)+(2)+(3)-(4)]
USER    Estimated Inhibition Constant, Ki   =  474.64 uM (micromolar)  [Temperature = 298.15 K]
USER    
USER    (1) Final Intermolecular Energy     =   -7.00 kcal/mol
USER        vdW + Hbond + desolv Energy     =   -7.00 kcal/mol
USER        Electrostatic Energy            =   +0.00 kcal/mol
USER    (2) Final Total Internal Energy     =   -0.51 kcal/mol
USER    (3) Torsional Free Energy           =   +2.68 kcal/mol
USER    (4) Unbound System's Energy         =   -0.29 kcal/mol
USER    
USER    
USER    NEWDPF move PE_ligand.pdbqt
USER    NEWDPF about 3.037000 5.209000 3.149000
USER    NEWDPF tran0 27.680587 37.270551 28.488537
USER    NEWDPF quaternion0 0.278940 0.387321 0.785447 0.394014
USER    NEWDPF axisangle0 0.303491 0.421412 0.854579 133.591033
USER    NEWDPF quat0 0.303491 0.421412 0.854579 133.591033
USER    NEWDPF dihe0 -80.66 179.98 -26.32 -6.57 33.44 -159.80 5.07 -94.48 -106.62 
USER  keepresnum = 1 
USER  
REMARK  9 active torsions:
REMARK  status: ('A' for Active; 'I' for Inactive)
REMARK    1  A    between atoms: C1_1  and  C2_2 
REMARK    2  A    between atoms: C1_1  and  C3_3 
REMARK    3  A    between atoms: C2_2  and  C4_4 
REMARK    4  A    between atoms: C3_3  and  C5_5 
REMARK    5  A    between atoms: C4_4  and  C6_6 
REMARK    6  A    between atoms: C5_5  and  C7_7 
REMARK    7  A    between atoms: C6_6  and  C8_8 
REMARK    8  A    between atoms: C7_7  and  C9_9 
REMARK    9  A    between atoms: C8_8  and  C10_10 
USER                              x       y       z     vdW  Elec       q    Type
USER                           _______ _______ _______ _____ _____    ______ ____
ROOT
ATOM      1  C1  MOL C   1      28.572  37.602  29.161 -0.64 -0.00    +0.000 C 
ENDROOT
BRANCH   1   2
ATOM      2  C2  MOL C   1      27.219  37.052  29.635 -0.54 -0.00    +0.000 C 
BRANCH   2   3
ATOM      3  C4  MOL C   1      26.248  38.274  29.747 -0.50 -0.00    +0.000 C 
BRANCH   3   4
ATOM      4  C6  MOL C   1      24.849  37.906  30.472 -0.52 -0.00    +0.000 C 
BRANCH   4   5
ATOM      5  C8  MOL C   1      24.048  36.775  29.869 -0.57 +0.00    -0.000 C 
BRANCH   5   6
ATOM      6  C10 MOL C   1      23.406  35.996  31.011 -0.49 +0.00    -0.005 C 
ATOM      7  C12 MOL C   1      24.080  36.062  32.349 -0.41 -0.00    +0.005 C 
ENDBRANCH   5   6
ENDBRANCH   4   5
ENDBRANCH   3   4
ENDBRANCH   2   3
ENDBRANCH   1   2
BRANCH   1   8
ATOM      8  C3  MOL C   1      28.223  38.955  28.422 -0.62 -0.00    +0.000 C 
BRANCH   8   9
ATOM      9  C5  MOL C   1      28.785  40.209  29.330 -0.59 -0.00    +0.000 C 
BRANCH   9  10
ATOM     10  C7  MOL C   1      29.425  41.412  28.541 -0.68 +0.00    -0.000 C 
BRANCH  10  11
ATOM     11  C9  MOL C   1      30.122  42.499  29.431 -0.72 +0.01    -0.005 C 
ATOM     12  C11 MOL C   1      30.276  41.888  30.868 -0.71 -0.01    +0.005 C 
ENDBRANCH  10  11
ENDBRANCH   9  10
ENDBRANCH   8   9
ENDBRANCH   1   8
TORSDOF 9
TER
ENDMDL
MODEL       21
USER    Run = 21
USER    DPF = lac3.dpf
USER  
USER    Estimated Free Energy of Binding    =   -4.67 kcal/mol  [=(1)+(2)+(3)-(4)]
USER    Estimated Inhibition Constant, Ki   =  379.46 uM (micromolar)  [Temperature = 298.15 K]
USER    
USER    (1) Final Intermolecular Energy     =   -7.01 kcal/mol
USER        vdW + Hbond + desolv Energy     =   -7.01 kcal/mol
USER        Electrostatic Energy            =   +0.00 kcal/mol
USER    (2) Final Total Internal Energy     =   -0.63 kcal/mol
USER    (3) Torsional Free Energy           =   +2.68 kcal/mol
USER    (4) Unbound System's Energy         =   -0.29 kcal/mol
USER    
USER    
USER    NEWDPF move PE_ligand.pdbqt
USER    NEWDPF about 3.037000 5.209000 3.149000
USER    NEWDPF tran0 28.409429 40.337202 29.241804
USER    NEWDPF quaternion0 -0.815033 -0.472857 0.333615 -0.028788
USER    NEWDPF axisangle0 -0.815371 -0.473053 0.333753 -176.700672
USER    NEWDPF quat0 -0.815371 -0.473053 0.333753 -176.700672
USER    NEWDPF dihe0 160.42 -158.22 154.42 -99.81 180.00 173.15 58.00 -7.45 65.46 
USER  keepresnum = 1 
USER  
REMARK  9 active torsions:
REMARK  status: ('A' for Active; 'I' for Inactive)
REMARK    1  A    between atoms: C1_1  and  C2_2 
REMARK    2  A    between atoms: C1_1  and  C3_3 
REMARK    3  A    between atoms: C2_2  and  C4_4 
REMARK    4  A    between atoms: C3_3  and  C5_5 
REMARK    5  A    between atoms: C4_4  and  C6_6 
REMARK    6  A    between atoms: C5_5  and  C7_7 
REMARK    7  A    between atoms: C6_6  and  C8_8 
REMARK    8  A    between atoms: C7_7  and  C9_9 
REMARK    9  A    between atoms: C8_8  and  C10_10 
USER                              x       y       z     vdW  Elec       q    Type
USER                           _______ _______ _______ _____ _____    ______ ____
ROOT
ATOM      1  C1  MOL C   1      28.599  39.564  28.391 -0.60 -0.00    +0.000 C 
ENDROOT
BRANCH   1   2
ATOM      2  C2  MOL C   1      28.692  41.092  28.280 -0.64 -0.00    +0.000 C 
BRANCH   2   3
ATOM      3  C4  MOL C   1      30.129  41.494  28.750 -0.67 -0.00    +0.000 C 
BRANCH   3   4
ATOM      4  C6  MOL C   1      30.124  42.434  30.068 -0.68 -0.00    +0.000 C 
BRANCH   4   5
ATOM      5  C8  MOL C   1      30.187  41.729  31.404 -0.72 +0.00    -0.000 C 
BRANCH   5   6
ATOM      6  C10 MOL C   1      29.375  40.443  31.292 -0.52 +0.01    -0.005 C 
ATOM      7  C12 MOL C   1      28.599  40.015  32.502 -0.45 -0.01    +0.005 C 
ENDBRANCH   5   6
ENDBRANCH   4   5
ENDBRANCH   3   4
ENDBRANCH   2   3
ENDBRANCH   1   2
BRANCH   1   8
ATOM      8  C3  MOL C   1      27.084  39.276  28.740 -0.54 -0.00    +0.000 C 
BRANCH   8   9
ATOM      9  C5  MOL C   1      26.965  37.746  29.341 -0.59 -0.00    +0.000 C 
BRANCH   9  10
ATOM     10  C7  MOL C   1      26.547  37.619  30.853 -0.49 +0.00    -0.000 C 
BRANCH  10  11
ATOM     11  C9  MOL C   1      25.013  37.409  31.106 -0.50 +0.00    -0.005 C 
ATOM     12  C11 MOL C   1      24.471  36.522  29.932 -0.60 -0.00    +0.005 C 
ENDBRANCH  10  11
ENDBRANCH   9  10
ENDBRANCH   8   9
ENDBRANCH   1   8
TORSDOF 9
TER
ENDMDL
MODEL       22
USER    Run = 22
USER    DPF = lac3.dpf
USER  
USER    Estimated Free Energy of Binding    =   -4.40 kcal/mol  [=(1)+(2)+(3)-(4)]
USER    Estimated Inhibition Constant, Ki   =  593.10 uM (micromolar)  [Temperature = 298.15 K]
USER    
USER    (1) Final Intermolecular Energy     =   -6.62 kcal/mol
USER        vdW + Hbond + desolv Energy     =   -6.62 kcal/mol
USER        Electrostatic Energy            =   +0.00 kcal/mol
USER    (2) Final Total Internal Energy     =   -0.76 kcal/mol
USER    (3) Torsional Free Energy           =   +2.68 kcal/mol
USER    (4) Unbound System's Energy         =   -0.29 kcal/mol
USER    
USER    
USER    NEWDPF move PE_ligand.pdbqt
USER    NEWDPF about 3.037000 5.209000 3.149000
USER    NEWDPF tran0 28.648043 40.218348 32.469362
USER    NEWDPF quaternion0 0.528208 -0.454053 0.341839 -0.630855
USER    NEWDPF axisangle0 0.680768 -0.585194 0.440571 -101.773522
USER    NEWDPF quat0 0.680768 -0.585194 0.440571 -101.773522
USER    NEWDPF dihe0 175.04 174.12 3.42 -113.17 54.16 178.16 116.47 -31.84 39.19 
USER  keepresnum = 1 
USER  
REMARK  9 active torsions:
REMARK  status: ('A' for Active; 'I' for Inactive)
REMARK    1  A    between atoms: C1_1  and  C2_2 
REMARK    2  A    between atoms: C1_1  and  C3_3 
REMARK    3  A    between atoms: C2_2  and  C4_4 
REMARK    4  A    between atoms: C3_3  and  C5_5 
REMARK    5  A    between atoms: C4_4  and  C6_6 
REMARK    6  A    between atoms: C5_5  and  C7_7 
REMARK    7  A    between atoms: C6_6  and  C8_8 
REMARK    8  A    between atoms: C7_7  and  C9_9 
REMARK    9  A    between atoms: C8_8  and  C10_10 
USER                              x       y       z     vdW  Elec       q    Type
USER                           _______ _______ _______ _____ _____    ______ ____
ROOT
ATOM      1  C1  MOL C   1      27.650  39.665  32.702 -0.41 -0.00    +0.000 C 
ENDROOT
BRANCH   1   2
ATOM      2  C2  MOL C   1      28.855  39.818  33.641 -0.32 -0.00    +0.000 C 
BRANCH   2   3
ATOM      3  C4  MOL C   1      29.092  41.353  33.828 -0.45 -0.00    +0.000 C 
BRANCH   3   4
ATOM      4  C6  MOL C   1      29.375  42.124  32.433 -0.47 -0.00    +0.000 C 
BRANCH   4   5
ATOM      5  C8  MOL C   1      30.160  41.367  31.386 -0.68 +0.00    -0.000 C 
BRANCH   5   6
ATOM      6  C10 MOL C   1      30.150  42.195  30.106 -0.72 +0.01    -0.005 C 
ATOM      7  C12 MOL C   1      29.745  41.499  28.842 -0.74 -0.01    +0.005 C 
ENDBRANCH   5   6
ENDBRANCH   4   5
ENDBRANCH   3   4
ENDBRANCH   2   3
ENDBRANCH   1   2
BRANCH   1   8
ATOM      8  C3  MOL C   1      28.194  38.822  31.480 -0.52 -0.00    +0.000 C 
BRANCH   8   9
ATOM      9  C5  MOL C   1      26.927  38.444  30.497 -0.52 -0.00    +0.000 C 
BRANCH   9  10
ATOM     10  C7  MOL C   1      26.992  39.001  29.026 -0.52 +0.00    -0.000 C 
BRANCH  10  11
ATOM     11  C9  MOL C   1      27.876  38.166  28.035 -0.60 +0.00    -0.005 C 
ATOM     12  C11 MOL C   1      28.304  36.859  28.790 -0.67 -0.00    +0.005 C 
ENDBRANCH  10  11
ENDBRANCH   9  10
ENDBRANCH   8   9
ENDBRANCH   1   8
TORSDOF 9
TER
ENDMDL
MODEL       23
USER    Run = 23
USER    DPF = lac3.dpf
USER  
USER    Estimated Free Energy of Binding    =   -4.28 kcal/mol  [=(1)+(2)+(3)-(4)]
USER    Estimated Inhibition Constant, Ki   =  724.25 uM (micromolar)  [Temperature = 298.15 K]
USER    
USER    (1) Final Intermolecular Energy     =   -6.62 kcal/mol
USER        vdW + Hbond + desolv Energy     =   -6.62 kcal/mol
USER        Electrostatic Energy            =   -0.00 kcal/mol
USER    (2) Final Total Internal Energy     =   -0.63 kcal/mol
USER    (3) Torsional Free Energy           =   +2.68 kcal/mol
USER    (4) Unbound System's Energy         =   -0.29 kcal/mol
USER    
USER    
USER    NEWDPF move PE_ligand.pdbqt
USER    NEWDPF about 3.037000 5.209000 3.149000
USER    NEWDPF tran0 27.445053 38.559817 29.858596
USER    NEWDPF quaternion0 -0.596561 0.730510 -0.325002 -0.069593
USER    NEWDPF axisangle0 -0.598011 0.732286 -0.325792 -172.018727
USER    NEWDPF quat0 -0.598011 0.732286 -0.325792 -172.018727
USER    NEWDPF dihe0 35.20 134.31 85.04 -30.81 177.88 143.88 -124.61 56.99 15.59 
USER  keepresnum = 1 
USER  
REMARK  9 active torsions:
REMARK  status: ('A' for Active; 'I' for Inactive)
REMARK    1  A    between atoms: C1_1  and  C2_2 
REMARK    2  A    between atoms: C1_1  and  C3_3 
REMARK    3  A    between atoms: C2_2  and  C4_4 
REMARK    4  A    between atoms: C3_3  and  C5_5 
REMARK    5  A    between atoms: C4_4  and  C6_6 
REMARK    6  A    between atoms: C5_5  and  C7_7 
REMARK    7  A    between atoms: C6_6  and  C8_8 
REMARK    8  A    between atoms: C7_7  and  C9_9 
REMARK    9  A    between atoms: C8_8  and  C10_10 
USER                              x       y       z     vdW  Elec       q    Type
USER                           _______ _______ _______ _____ _____    ______ ____
ROOT
ATOM      1  C1  MOL C   1      27.122  38.430  28.747 -0.58 -0.00    +0.000 C 
ENDROOT
BRANCH   1   2
ATOM      2  C2  MOL C   1      27.182  37.333  29.820 -0.59 -0.00    +0.000 C 
BRANCH   2   3
ATOM      3  C4  MOL C   1      26.772  38.001  31.173 -0.48 -0.00    +0.000 C 
BRANCH   3   4
ATOM      4  C6  MOL C   1      25.281  38.632  31.143 -0.44 -0.00    +0.000 C 
BRANCH   4   5
ATOM      5  C8  MOL C   1      24.146  37.708  31.523 -0.45 +0.00    -0.000 C 
BRANCH   5   6
ATOM      6  C10 MOL C   1      23.403  37.332  30.246 -0.56 +0.00    -0.005 C 
ATOM      7  C12 MOL C   1      23.860  36.099  29.525 -0.60 -0.00    +0.005 C 
ENDBRANCH   5   6
ENDBRANCH   4   5
ENDBRANCH   3   4
ENDBRANCH   2   3
ENDBRANCH   1   2
BRANCH   1   8
ATOM      8  C3  MOL C   1      28.618  38.914  28.581 -0.53 -0.00    +0.000 C 
BRANCH   8   9
ATOM      9  C5  MOL C   1      28.830  40.281  29.475 -0.55 -0.00    +0.000 C 
BRANCH   9  10
ATOM     10  C7  MOL C   1      29.162  40.076  31.000 -0.50 +0.00    -0.000 C 
BRANCH  10  11
ATOM     11  C9  MOL C   1      29.748  41.333  31.731 -0.64 +0.01    -0.005 C 
ATOM     12  C11 MOL C   1      30.588  42.131  30.673 -0.72 -0.01    +0.005 C 
ENDBRANCH  10  11
ENDBRANCH   9  10
ENDBRANCH   8   9
ENDBRANCH   1   8
TORSDOF 9
TER
ENDMDL
MODEL       24
USER    Run = 24
USER    DPF = lac3.dpf
USER  
USER    Estimated Free Energy of Binding    =   -4.34 kcal/mol  [=(1)+(2)+(3)-(4)]
USER    Estimated Inhibition Constant, Ki   =  654.77 uM (micromolar)  [Temperature = 298.15 K]
USER    
USER    (1) Final Intermolecular Energy     =   -6.90 kcal/mol
USER        vdW + Hbond + desolv Energy     =   -6.90 kcal/mol
USER        Electrostatic Energy            =   -0.00 kcal/mol
USER    (2) Final Total Internal Energy     =   -0.42 kcal/mol
USER    (3) Torsional Free Energy           =   +2.68 kcal/mol
USER    (4) Unbound System's Energy         =   -0.29 kcal/mol
USER    
USER    
USER    NEWDPF move PE_ligand.pdbqt
USER    NEWDPF about 3.037000 5.209000 3.149000
USER    NEWDPF tran0 26.770404 38.127225 31.162621
USER    NEWDPF quaternion0 0.939776 0.078002 -0.308098 0.125750
USER    NEWDPF axisangle0 0.947295 0.078627 -0.310563 165.551843
USER    NEWDPF quat0 0.947295 0.078627 -0.310563 165.551843
USER    NEWDPF dihe0 117.38 152.15 -135.59 -67.21 146.97 101.55 -83.54 -51.54 159.21 
USER  keepresnum = 1 
USER  
REMARK  9 active torsions:
REMARK  status: ('A' for Active; 'I' for Inactive)
REMARK    1  A    between atoms: C1_1  and  C2_2 
REMARK    2  A    between atoms: C1_1  and  C3_3 
REMARK    3  A    between atoms: C2_2  and  C4_4 
REMARK    4  A    between atoms: C3_3  and  C5_5 
REMARK    5  A    between atoms: C4_4  and  C6_6 
REMARK    6  A    between atoms: C5_5  and  C7_7 
REMARK    7  A    between atoms: C6_6  and  C8_8 
REMARK    8  A    between atoms: C7_7  and  C9_9 
REMARK    9  A    between atoms: C8_8  and  C10_10 
USER                              x       y       z     vdW  Elec       q    Type
USER                           _______ _______ _______ _____ _____    ______ ____
ROOT
ATOM      1  C1  MOL C   1      26.290  37.407  30.383 -0.53 -0.00    +0.000 C 
ENDROOT
BRANCH   1   2
ATOM      2  C2  MOL C   1      27.499  38.327  30.160 -0.57 -0.00    +0.000 C 
BRANCH   2   3
ATOM      3  C4  MOL C   1      27.985  38.087  28.693 -0.63 -0.00    +0.000 C 
BRANCH   3   4
ATOM      4  C6  MOL C   1      27.499  39.242  27.668 -0.70 -0.00    +0.000 C 
BRANCH   4   5
ATOM      5  C8  MOL C   1      27.907  40.659  27.999 -0.67 +0.00    -0.000 C 
BRANCH   5   6
ATOM      6  C10 MOL C   1      29.278  40.607  28.665 -0.68 +0.00    -0.005 C 
ATOM      7  C12 MOL C   1      29.958  41.915  28.937 -0.74 -0.01    +0.005 C 
ENDBRANCH   5   6
ENDBRANCH   4   5
ENDBRANCH   3   4
ENDBRANCH   2   3
ENDBRANCH   1   2
BRANCH   1   8
ATOM      8  C3  MOL C   1      25.086  38.388  30.683 -0.50 -0.00    +0.000 C 
BRANCH   8   9
ATOM      9  C5  MOL C   1      23.682  37.647  30.242 -0.54 -0.00    +0.000 C 
BRANCH   9  10
ATOM     10  C7  MOL C   1      23.547  36.124  30.617 -0.57 +0.00    -0.000 C 
BRANCH  10  11
ATOM     11  C9  MOL C   1      22.248  35.745  31.410 -0.41 +0.00    -0.005 C 
ATOM     12  C11 MOL C   1      21.617  37.085  31.927 -0.37 -0.00    +0.005 C 
ENDBRANCH  10  11
ENDBRANCH   9  10
ENDBRANCH   8   9
ENDBRANCH   1   8
TORSDOF 9
TER
ENDMDL
MODEL       25
USER    Run = 25
USER    DPF = lac3.dpf
USER  
USER    Estimated Free Energy of Binding    =   -4.15 kcal/mol  [=(1)+(2)+(3)-(4)]
USER    Estimated Inhibition Constant, Ki   =  900.59 uM (micromolar)  [Temperature = 298.15 K]
USER    
USER    (1) Final Intermolecular Energy     =   -6.50 kcal/mol
USER        vdW + Hbond + desolv Energy     =   -6.50 kcal/mol
USER        Electrostatic Energy            =   -0.00 kcal/mol
USER    (2) Final Total Internal Energy     =   -0.63 kcal/mol
USER    (3) Torsional Free Energy           =   +2.68 kcal/mol
USER    (4) Unbound System's Energy         =   -0.29 kcal/mol
USER    
USER    
USER    NEWDPF move PE_ligand.pdbqt
USER    NEWDPF about 3.037000 5.209000 3.149000
USER    NEWDPF tran0 27.883710 38.137528 31.842720
USER    NEWDPF quaternion0 -0.069172 -0.942791 0.090344 -0.313365
USER    NEWDPF axisangle0 -0.072841 -0.992796 0.095135 -143.475672
USER    NEWDPF quat0 -0.072841 -0.992796 0.095135 -143.475672
USER    NEWDPF dihe0 31.66 -152.21 -96.62 -113.66 166.38 -9.12 -133.07 -33.28 -179.32 
USER  keepresnum = 1 
USER  
REMARK  9 active torsions:
REMARK  status: ('A' for Active; 'I' for Inactive)
REMARK    1  A    between atoms: C1_1  and  C2_2 
REMARK    2  A    between atoms: C1_1  and  C3_3 
REMARK    3  A    between atoms: C2_2  and  C4_4 
REMARK    4  A    between atoms: C3_3  and  C5_5 
REMARK    5  A    between atoms: C4_4  and  C6_6 
REMARK    6  A    between atoms: C5_5  and  C7_7 
REMARK    7  A    between atoms: C6_6  and  C8_8 
REMARK    8  A    between atoms: C7_7  and  C9_9 
REMARK    9  A    between atoms: C8_8  and  C10_10 
USER                              x       y       z     vdW  Elec       q    Type
USER                           _______ _______ _______ _____ _____    ______ ____
ROOT
ATOM      1  C1  MOL C   1      27.577  38.875  30.995 -0.50 -0.00    +0.000 C 
ENDROOT
BRANCH   1   2
ATOM      2  C2  MOL C   1      26.721  38.452  32.198 -0.38 -0.00    +0.000 C 
BRANCH   2   3
ATOM      3  C4  MOL C   1      25.233  38.755  31.823 -0.41 -0.00    +0.000 C 
BRANCH   3   4
ATOM      4  C6  MOL C   1      24.799  38.127  30.396 -0.51 -0.00    +0.000 C 
BRANCH   4   5
ATOM      5  C8  MOL C   1      24.520  36.641  30.365 -0.58 +0.00    -0.000 C 
BRANCH   5   6
ATOM      6  C10 MOL C   1      23.194  36.400  31.077 -0.50 +0.00    -0.005 C 
ATOM      7  C12 MOL C   1      21.945  36.500  30.253 -0.45 -0.00    +0.005 C 
ENDBRANCH   5   6
ENDBRANCH   4   5
ENDBRANCH   3   4
ENDBRANCH   2   3
ENDBRANCH   1   2
BRANCH   1   8
ATOM      8  C3  MOL C   1      27.811  37.542  30.177 -0.55 -0.00    +0.000 C 
BRANCH   8   9
ATOM      9  C5  MOL C   1      28.533  37.924  28.746 -0.63 -0.00    +0.000 C 
BRANCH   9  10
ATOM     10  C7  MOL C   1      27.654  38.718  27.709 -0.61 +0.00    -0.000 C 
BRANCH  10  11
ATOM     11  C9  MOL C   1      27.553  40.262  27.963 -0.66 +0.00    -0.005 C 
ATOM     12  C11 MOL C   1      28.983  40.754  28.380 -0.71 -0.00    +0.005 C 
ENDBRANCH  10  11
ENDBRANCH   9  10
ENDBRANCH   8   9
ENDBRANCH   1   8
TORSDOF 9
TER
ENDMDL
MODEL       26
USER    Run = 26
USER    DPF = lac3.dpf
USER  
USER    Estimated Free Energy of Binding    =   -4.36 kcal/mol  [=(1)+(2)+(3)-(4)]
USER    Estimated Inhibition Constant, Ki   =  642.03 uM (micromolar)  [Temperature = 298.15 K]
USER    
USER    (1) Final Intermolecular Energy     =   -6.96 kcal/mol
USER        vdW + Hbond + desolv Energy     =   -6.96 kcal/mol
USER        Electrostatic Energy            =   -0.00 kcal/mol
USER    (2) Final Total Internal Energy     =   -0.37 kcal/mol
USER    (3) Torsional Free Energy           =   +2.68 kcal/mol
USER    (4) Unbound System's Energy         =   -0.29 kcal/mol
USER    
USER    
USER    NEWDPF move PE_ligand.pdbqt
USER    NEWDPF about 3.037000 5.209000 3.149000
USER    NEWDPF tran0 26.405888 38.070189 29.453401
USER    NEWDPF quaternion0 0.609584 -0.259484 0.748906 -0.014681
USER    NEWDPF axisangle0 0.609650 -0.259512 0.748986 -178.317613
USER    NEWDPF quat0 0.609650 -0.259512 0.748986 -178.317613
USER    NEWDPF dihe0 174.68 -25.51 -161.23 -179.96 -118.40 -158.82 -128.84 51.97 44.57 
USER  keepresnum = 1 
USER  
REMARK  9 active torsions:
REMARK  status: ('A' for Active; 'I' for Inactive)
REMARK    1  A    between atoms: C1_1  and  C2_2 
REMARK    2  A    between atoms: C1_1  and  C3_3 
REMARK    3  A    between atoms: C2_2  and  C4_4 
REMARK    4  A    between atoms: C3_3  and  C5_5 
REMARK    5  A    between atoms: C4_4  and  C6_6 
REMARK    6  A    between atoms: C5_5  and  C7_7 
REMARK    7  A    between atoms: C6_6  and  C8_8 
REMARK    8  A    between atoms: C7_7  and  C9_9 
REMARK    9  A    between atoms: C8_8  and  C10_10 
USER                              x       y       z     vdW  Elec       q    Type
USER                           _______ _______ _______ _____ _____    ______ ____
ROOT
ATOM      1  C1  MOL C   1      26.824  37.035  29.121 -0.59 -0.00    +0.000 C 
ENDROOT
BRANCH   1   2
ATOM      2  C2  MOL C   1      26.398  37.440  30.539 -0.52 -0.00    +0.000 C 
BRANCH   2   3
ATOM      3  C4  MOL C   1      24.863  37.732  30.485 -0.53 -0.00    +0.000 C 
BRANCH   3   4
ATOM      4  C6  MOL C   1      24.001  36.487  29.912 -0.62 -0.00    +0.000 C 
BRANCH   4   5
ATOM      5  C8  MOL C   1      22.572  36.374  30.392 -0.52 +0.00    -0.000 C 
BRANCH   5   6
ATOM      6  C10 MOL C   1      22.244  37.635  31.184 -0.44 +0.00    -0.005 C 
ATOM      7  C12 MOL C   1      21.634  37.452  32.541 -0.32 -0.00    +0.005 C 
ENDBRANCH   5   6
ENDBRANCH   4   5
ENDBRANCH   3   4
ENDBRANCH   2   3
ENDBRANCH   1   2
BRANCH   1   8
ATOM      8  C3  MOL C   1      28.040  37.986  28.777 -0.64 -0.00    +0.000 C 
BRANCH   8   9
ATOM      9  C5  MOL C   1      27.509  39.173  27.765 -0.69 -0.00    +0.000 C 
BRANCH   9  10
ATOM     10  C7  MOL C   1      28.103  40.611  28.001 -0.70 +0.00    -0.000 C 
BRANCH  10  11
ATOM     11  C9  MOL C   1      29.372  40.667  28.922 -0.65 +0.00    -0.005 C 
ATOM     12  C11 MOL C   1      29.981  42.105  28.778 -0.73 -0.01    +0.005 C 
ENDBRANCH  10  11
ENDBRANCH   9  10
ENDBRANCH   8   9
ENDBRANCH   1   8
TORSDOF 9
TER
ENDMDL
MODEL       27
USER    Run = 27
USER    DPF = lac3.dpf
USER  
USER    Estimated Free Energy of Binding    =   -4.72 kcal/mol  [=(1)+(2)+(3)-(4)]
USER    Estimated Inhibition Constant, Ki   =  347.74 uM (micromolar)  [Temperature = 298.15 K]
USER    
USER    (1) Final Intermolecular Energy     =   -7.11 kcal/mol
USER        vdW + Hbond + desolv Energy     =   -7.11 kcal/mol
USER        Electrostatic Energy            =   +0.00 kcal/mol
USER    (2) Final Total Internal Energy     =   -0.58 kcal/mol
USER    (3) Torsional Free Energy           =   +2.68 kcal/mol
USER    (4) Unbound System's Energy         =   -0.29 kcal/mol
USER    
USER    
USER    NEWDPF move PE_ligand.pdbqt
USER    NEWDPF about 3.037000 5.209000 3.149000
USER    NEWDPF tran0 27.999806 38.986535 29.918854
USER    NEWDPF quaternion0 0.905398 0.168101 -0.195863 -0.337098
USER    NEWDPF axisangle0 0.961685 0.178552 -0.208040 -140.599720
USER    NEWDPF quat0 0.961685 0.178552 -0.208040 -140.599720
USER    NEWDPF dihe0 36.23 -159.56 77.62 -83.94 100.13 153.52 -38.50 -24.88 -66.65 
USER  keepresnum = 1 
USER  
REMARK  9 active torsions:
REMARK  status: ('A' for Active; 'I' for Inactive)
REMARK    1  A    between atoms: C1_1  and  C2_2 
REMARK    2  A    between atoms: C1_1  and  C3_3 
REMARK    3  A    between atoms: C2_2  and  C4_4 
REMARK    4  A    between atoms: C3_3  and  C5_5 
REMARK    5  A    between atoms: C4_4  and  C6_6 
REMARK    6  A    between atoms: C5_5  and  C7_7 
REMARK    7  A    between atoms: C6_6  and  C8_8 
REMARK    8  A    between atoms: C7_7  and  C9_9 
REMARK    9  A    between atoms: C8_8  and  C10_10 
USER                              x       y       z     vdW  Elec       q    Type
USER                           _______ _______ _______ _____ _____    ______ ____
ROOT
ATOM      1  C1  MOL C   1      28.105  37.826  29.919 -0.61 -0.00    +0.000 C 
ENDROOT
BRANCH   1   2
ATOM      2  C2  MOL C   1      29.000  38.829  29.176 -0.55 -0.00    +0.000 C 
BRANCH   2   3
ATOM      3  C4  MOL C   1      28.047  39.834  28.449 -0.69 -0.00    +0.000 C 
BRANCH   3   4
ATOM      4  C6  MOL C   1      28.648  41.335  28.373 -0.60 -0.00    +0.000 C 
BRANCH   4   5
ATOM      5  C8  MOL C   1      30.098  41.506  28.766 -0.68 +0.00    -0.000 C 
BRANCH   5   6
ATOM      6  C10 MOL C   1      30.140  42.330  30.049 -0.70 +0.01    -0.005 C 
ATOM      7  C12 MOL C   1      30.137  41.579  31.346 -0.70 -0.01    +0.005 C 
ENDBRANCH   5   6
ENDBRANCH   4   5
ENDBRANCH   3   4
ENDBRANCH   2   3
ENDBRANCH   1   2
BRANCH   1   8
ATOM      8  C3  MOL C   1      26.673  38.008  29.274 -0.52 -0.00    +0.000 C 
BRANCH   8   9
ATOM      9  C5  MOL C   1      25.629  36.969  30.012 -0.53 -0.00    +0.000 C 
BRANCH   9  10
ATOM     10  C7  MOL C   1      24.808  37.546  31.225 -0.49 +0.00    -0.000 C 
BRANCH  10  11
ATOM     11  C9  MOL C   1      23.272  37.729  30.965 -0.50 +0.00    -0.005 C 
ATOM     12  C11 MOL C   1      22.826  36.569  30.007 -0.54 -0.00    +0.005 C 
ENDBRANCH  10  11
ENDBRANCH   9  10
ENDBRANCH   8   9
ENDBRANCH   1   8
TORSDOF 9
TER
ENDMDL
MODEL       28
USER    Run = 28
USER    DPF = lac3.dpf
USER  
USER    Estimated Free Energy of Binding    =   -4.22 kcal/mol  [=(1)+(2)+(3)-(4)]
USER    Estimated Inhibition Constant, Ki   =  800.03 uM (micromolar)  [Temperature = 298.15 K]
USER    
USER    (1) Final Intermolecular Energy     =   -6.66 kcal/mol
USER        vdW + Hbond + desolv Energy     =   -6.65 kcal/mol
USER        Electrostatic Energy            =   -0.00 kcal/mol
USER    (2) Final Total Internal Energy     =   -0.54 kcal/mol
USER    (3) Torsional Free Energy           =   +2.68 kcal/mol
USER    (4) Unbound System's Energy         =   -0.29 kcal/mol
USER    
USER    
USER    NEWDPF move PE_ligand.pdbqt
USER    NEWDPF about 3.037000 5.209000 3.149000
USER    NEWDPF tran0 27.492455 39.007915 30.714965
USER    NEWDPF quaternion0 -0.090557 -0.149488 0.758440 0.627871
USER    NEWDPF axisangle0 -0.116349 -0.192066 0.974461 102.213516
USER    NEWDPF quat0 -0.116349 -0.192066 0.974461 102.213516
USER    NEWDPF dihe0 146.61 -14.47 -172.31 117.26 179.35 127.11 59.17 -37.31 75.91 
USER  keepresnum = 1 
USER  
REMARK  9 active torsions:
REMARK  status: ('A' for Active; 'I' for Inactive)
REMARK    1  A    between atoms: C1_1  and  C2_2 
REMARK    2  A    between atoms: C1_1  and  C3_3 
REMARK    3  A    between atoms: C2_2  and  C4_4 
REMARK    4  A    between atoms: C3_3  and  C5_5 
REMARK    5  A    between atoms: C4_4  and  C6_6 
REMARK    6  A    between atoms: C5_5  and  C7_7 
REMARK    7  A    between atoms: C6_6  and  C8_8 
REMARK    8  A    between atoms: C7_7  and  C9_9 
REMARK    9  A    between atoms: C8_8  and  C10_10 
USER                              x       y       z     vdW  Elec       q    Type
USER                           _______ _______ _______ _____ _____    ______ ____
ROOT
ATOM      1  C1  MOL C   1      28.411  38.704  31.364 -0.52 -0.00    +0.000 C 
ENDROOT
BRANCH   1   2
ATOM      2  C2  MOL C   1      27.422  37.755  30.671 -0.50 -0.00    +0.000 C 
BRANCH   2   3
ATOM      3  C4  MOL C   1      28.060  37.359  29.300 -0.65 -0.00    +0.000 C 
BRANCH   3   4
ATOM      4  C6  MOL C   1      27.198  37.869  28.029 -0.49 -0.00    +0.000 C 
BRANCH   4   5
ATOM      5  C8  MOL C   1      27.534  39.240  27.487 -0.68 +0.00    -0.000 C 
BRANCH   5   6
ATOM      6  C10 MOL C   1      28.611  39.844  28.382 -0.64 +0.00    -0.005 C 
ATOM      7  C12 MOL C   1      28.747  41.337  28.379 -0.62 -0.00    +0.005 C 
ENDBRANCH   5   6
ENDBRANCH   4   5
ENDBRANCH   3   4
ENDBRANCH   2   3
ENDBRANCH   1   2
BRANCH   1   8
ATOM      8  C3  MOL C   1      27.539  39.500  32.415 -0.43 -0.00    +0.000 C 
BRANCH   8   9
ATOM      9  C5  MOL C   1      28.551  40.304  33.436 -0.42 -0.00    +0.000 C 
BRANCH   9  10
ATOM     10  C7  MOL C   1      29.389  41.480  32.809 -0.56 +0.00    -0.000 C 
BRANCH  10  11
ATOM     11  C9  MOL C   1      30.125  41.135  31.468 -0.61 +0.01    -0.005 C 
ATOM     12  C11 MOL C   1      30.870  42.435  31.005 -0.55 -0.01    +0.005 C 
ENDBRANCH  10  11
ENDBRANCH   9  10
ENDBRANCH   8   9
ENDBRANCH   1   8
TORSDOF 9
TER
ENDMDL
MODEL       29
USER    Run = 29
USER    DPF = lac3.dpf
USER  
USER    Estimated Free Energy of Binding    =   -4.52 kcal/mol  [=(1)+(2)+(3)-(4)]
USER    Estimated Inhibition Constant, Ki   =  487.36 uM (micromolar)  [Temperature = 298.15 K]
USER    
USER    (1) Final Intermolecular Energy     =   -6.87 kcal/mol
USER        vdW + Hbond + desolv Energy     =   -6.87 kcal/mol
USER        Electrostatic Energy            =   -0.00 kcal/mol
USER    (2) Final Total Internal Energy     =   -0.62 kcal/mol
USER    (3) Torsional Free Energy           =   +2.68 kcal/mol
USER    (4) Unbound System's Energy         =   -0.29 kcal/mol
USER    
USER    
USER    NEWDPF move PE_ligand.pdbqt
USER    NEWDPF about 3.037000 5.209000 3.149000
USER    NEWDPF tran0 27.098789 38.112419 29.750205
USER    NEWDPF quaternion0 0.189147 0.099584 -0.164502 -0.962936
USER    NEWDPF axisangle0 0.701244 0.369199 -0.609876 -31.296509
USER    NEWDPF quat0 0.701244 0.369199 -0.609876 -31.296509
USER    NEWDPF dihe0 161.76 -109.20 146.85 -156.04 -176.13 172.08 -160.84 12.72 14.70 
USER  keepresnum = 1 
USER  
REMARK  9 active torsions:
REMARK  status: ('A' for Active; 'I' for Inactive)
REMARK    1  A    between atoms: C1_1  and  C2_2 
REMARK    2  A    between atoms: C1_1  and  C3_3 
REMARK    3  A    between atoms: C2_2  and  C4_4 
REMARK    4  A    between atoms: C3_3  and  C5_5 
REMARK    5  A    between atoms: C4_4  and  C6_6 
REMARK    6  A    between atoms: C5_5  and  C7_7 
REMARK    7  A    between atoms: C6_6  and  C8_8 
REMARK    8  A    between atoms: C7_7  and  C9_9 
REMARK    9  A    between atoms: C8_8  and  C10_10 
USER                              x       y       z     vdW  Elec       q    Type
USER                           _______ _______ _______ _____ _____    ______ ____
ROOT
ATOM      1  C1  MOL C   1      27.407  38.608  30.758 -0.52 -0.00    +0.000 C 
ENDROOT
BRANCH   1   2
ATOM      2  C2  MOL C   1      28.299  37.756  29.844 -0.60 -0.00    +0.000 C 
BRANCH   2   3
ATOM      3  C4  MOL C   1      27.855  38.053  28.374 -0.64 -0.00    +0.000 C 
BRANCH   3   4
ATOM      4  C6  MOL C   1      27.129  39.490  28.209 -0.63 -0.00    +0.000 C 
BRANCH   4   5
ATOM      5  C8  MOL C   1      28.005  40.649  27.793 -0.60 +0.00    -0.000 C 
BRANCH   5   6
ATOM      6  C10 MOL C   1      29.293  40.577  28.606 -0.67 +0.00    -0.005 C 
ATOM      7  C12 MOL C   1      29.893  41.875  29.057 -0.73 -0.01    +0.005 C 
ENDBRANCH   5   6
ENDBRANCH   4   5
ENDBRANCH   3   4
ENDBRANCH   2   3
ENDBRANCH   1   2
BRANCH   1   8
ATOM      8  C3  MOL C   1      26.261  37.628  31.233 -0.44 -0.00    +0.000 C 
BRANCH   8   9
ATOM      9  C5  MOL C   1      24.845  38.468  31.299 -0.46 -0.00    +0.000 C 
BRANCH   9  10
ATOM     10  C7  MOL C   1      23.743  38.064  30.251 -0.51 +0.00    -0.000 C 
BRANCH  10  11
ATOM     11  C9  MOL C   1      23.632  36.528  29.956 -0.61 +0.00    -0.005 C 
ATOM     12  C11 MOL C   1      22.714  35.911  31.069 -0.46 -0.00    +0.005 C 
ENDBRANCH  10  11
ENDBRANCH   9  10
ENDBRANCH   8   9
ENDBRANCH   1   8
TORSDOF 9
TER
ENDMDL
MODEL       30
USER    Run = 30
USER    DPF = lac3.dpf
USER  
USER    Estimated Free Energy of Binding    =   -4.42 kcal/mol  [=(1)+(2)+(3)-(4)]
USER    Estimated Inhibition Constant, Ki   =  577.29 uM (micromolar)  [Temperature = 298.15 K]
USER    
USER    (1) Final Intermolecular Energy     =   -6.85 kcal/mol
USER        vdW + Hbond + desolv Energy     =   -6.85 kcal/mol
USER        Electrostatic Energy            =   -0.00 kcal/mol
USER    (2) Final Total Internal Energy     =   -0.54 kcal/mol
USER    (3) Torsional Free Energy           =   +2.68 kcal/mol
USER    (4) Unbound System's Energy         =   -0.29 kcal/mol
USER    
USER    
USER    NEWDPF move PE_ligand.pdbqt
USER    NEWDPF about 3.037000 5.209000 3.149000
USER    NEWDPF tran0 27.001213 37.854248 30.254306
USER    NEWDPF quaternion0 0.230077 -0.120546 0.025032 0.965353
USER    NEWDPF axisangle0 0.881699 -0.461956 0.095929 30.252599
USER    NEWDPF quat0 0.881699 -0.461956 0.095929 30.252599
USER    NEWDPF dihe0 136.59 161.28 -145.98 -37.61 163.27 -35.84 -179.19 68.44 64.95 
USER  keepresnum = 1 
USER  
REMARK  9 active torsions:
REMARK  status: ('A' for Active; 'I' for Inactive)
REMARK    1  A    between atoms: C1_1  and  C2_2 
REMARK    2  A    between atoms: C1_1  and  C3_3 
REMARK    3  A    between atoms: C2_2  and  C4_4 
REMARK    4  A    between atoms: C3_3  and  C5_5 
REMARK    5  A    between atoms: C4_4  and  C6_6 
REMARK    6  A    between atoms: C5_5  and  C7_7 
REMARK    7  A    between atoms: C6_6  and  C8_8 
REMARK    8  A    between atoms: C7_7  and  C9_9 
REMARK    9  A    between atoms: C8_8  and  C10_10 
USER                              x       y       z     vdW  Elec       q    Type
USER                           _______ _______ _______ _____ _____    ______ ____
ROOT
ATOM      1  C1  MOL C   1      27.075  38.981  30.540 -0.38 -0.00    +0.000 C 
ENDROOT
BRANCH   1   2
ATOM      2  C2  MOL C   1      28.244  38.028  30.257 -0.59 -0.00    +0.000 C 
BRANCH   2   3
ATOM      3  C4  MOL C   1      28.447  38.008  28.706 -0.62 -0.00    +0.000 C 
BRANCH   3   4
ATOM      4  C6  MOL C   1      27.498  39.064  27.930 -0.68 -0.00    +0.000 C 
BRANCH   4   5
ATOM      5  C8  MOL C   1      27.873  40.524  28.041 -0.67 +0.00    -0.000 C 
BRANCH   5   6
ATOM      6  C10 MOL C   1      29.360  40.599  28.373 -0.66 +0.00    -0.005 C 
ATOM      7  C12 MOL C   1      29.898  41.930  28.807 -0.74 -0.01    +0.005 C 
ENDBRANCH   5   6
ENDBRANCH   4   5
ENDBRANCH   3   4
ENDBRANCH   2   3
ENDBRANCH   1   2
BRANCH   1   8
ATOM      8  C3  MOL C   1      26.366  38.382  31.820 -0.43 -0.00    +0.000 C 
BRANCH   8   9
ATOM      9  C5  MOL C   1      25.271  37.252  31.334 -0.49 -0.00    +0.000 C 
BRANCH   9  10
ATOM     10  C7  MOL C   1      23.784  37.742  31.172 -0.49 +0.00    -0.000 C 
BRANCH  10  11
ATOM     11  C9  MOL C   1      22.898  36.881  30.206 -0.55 +0.00    -0.005 C 
ATOM     12  C11 MOL C   1      23.838  35.808  29.554 -0.55 -0.00    +0.005 C 
ENDBRANCH  10  11
ENDBRANCH   9  10
ENDBRANCH   8   9
ENDBRANCH   1   8
TORSDOF 9
TER
ENDMDL
MODEL       31
USER    Run = 31
USER    DPF = lac3.dpf
USER  
USER    Estimated Free Energy of Binding    =   -3.86 kcal/mol  [=(1)+(2)+(3)-(4)]
USER    Estimated Inhibition Constant, Ki   =    1.48 mM (millimolar)  [Temperature = 298.15 K]
USER    
USER    (1) Final Intermolecular Energy     =   -6.24 kcal/mol
USER        vdW + Hbond + desolv Energy     =   -6.24 kcal/mol
USER        Electrostatic Energy            =   -0.00 kcal/mol
USER    (2) Final Total Internal Energy     =   -0.59 kcal/mol
USER    (3) Torsional Free Energy           =   +2.68 kcal/mol
USER    (4) Unbound System's Energy         =   -0.29 kcal/mol
USER    
USER    
USER    NEWDPF move PE_ligand.pdbqt
USER    NEWDPF about 3.037000 5.209000 3.149000
USER    NEWDPF tran0 28.801263 38.694474 28.506281
USER    NEWDPF quaternion0 -0.224720 0.100820 0.929002 0.276210
USER    NEWDPF axisangle0 -0.233816 0.104900 0.966605 147.931734
USER    NEWDPF quat0 -0.233816 0.104900 0.966605 147.931734
USER    NEWDPF dihe0 13.31 -172.36 37.34 81.65 98.81 -104.74 87.47 -67.35 -101.95 
USER  keepresnum = 1 
USER  
REMARK  9 active torsions:
REMARK  status: ('A' for Active; 'I' for Inactive)
REMARK    1  A    between atoms: C1_1  and  C2_2 
REMARK    2  A    between atoms: C1_1  and  C3_3 
REMARK    3  A    between atoms: C2_2  and  C4_4 
REMARK    4  A    between atoms: C3_3  and  C5_5 
REMARK    5  A    between atoms: C4_4  and  C6_6 
REMARK    6  A    between atoms: C5_5  and  C7_7 
REMARK    7  A    between atoms: C6_6  and  C8_8 
REMARK    8  A    between atoms: C7_7  and  C9_9 
REMARK    9  A    between atoms: C8_8  and  C10_10 
USER                              x       y       z     vdW  Elec       q    Type
USER                           _______ _______ _______ _____ _____    ______ ____
ROOT
ATOM      1  C1  MOL C   1      28.934  38.078  29.486 -0.51 -0.00    +0.000 C 
ENDROOT
BRANCH   1   2
ATOM      2  C2  MOL C   1      27.802  37.936  28.458 -0.64 -0.00    +0.000 C 
BRANCH   2   3
ATOM      3  C4  MOL C   1      26.749  39.043  28.788 -0.46 -0.00    +0.000 C 
BRANCH   3   4
ATOM      4  C6  MOL C   1      25.645  38.565  29.871 -0.40 -0.00    +0.000 C 
BRANCH   4   5
ATOM      5  C8  MOL C   1      25.901  37.245  30.563 -0.53 +0.00    -0.000 C 
BRANCH   5   6
ATOM      6  C10 MOL C   1      24.553  36.669  30.983 -0.52 +0.00    -0.005 C 
ATOM      7  C12 MOL C   1      23.637  36.203  29.891 -0.62 -0.00    +0.005 C 
ENDBRANCH   5   6
ENDBRANCH   4   5
ENDBRANCH   3   4
ENDBRANCH   2   3
ENDBRANCH   1   2
BRANCH   1   8
ATOM      8  C3  MOL C   1      28.776  39.542  30.060 -0.54 -0.00    +0.000 C 
BRANCH   8   9
ATOM      9  C5  MOL C   1      28.996  39.493  31.692 -0.37 -0.00    +0.000 C 
BRANCH   9  10
ATOM     10  C7  MOL C   1      28.512  40.753  32.502 -0.37 +0.00    -0.000 C 
BRANCH  10  11
ATOM     11  C9  MOL C   1      29.535  41.940  32.565 -0.55 +0.00    -0.005 C 
ATOM     12  C11 MOL C   1      30.526  41.757  31.363 -0.72 -0.01    +0.005 C 
ENDBRANCH  10  11
ENDBRANCH   9  10
ENDBRANCH   8   9
ENDBRANCH   1   8
TORSDOF 9
TER
ENDMDL
MODEL       32
USER    Run = 32
USER    DPF = lac3.dpf
USER  
USER    Estimated Free Energy of Binding    =   -4.73 kcal/mol  [=(1)+(2)+(3)-(4)]
USER    Estimated Inhibition Constant, Ki   =  342.86 uM (micromolar)  [Temperature = 298.15 K]
USER    
USER    (1) Final Intermolecular Energy     =   -7.17 kcal/mol
USER        vdW + Hbond + desolv Energy     =   -7.17 kcal/mol
USER        Electrostatic Energy            =   +0.00 kcal/mol
USER    (2) Final Total Internal Energy     =   -0.53 kcal/mol
USER    (3) Torsional Free Energy           =   +2.68 kcal/mol
USER    (4) Unbound System's Energy         =   -0.29 kcal/mol
USER    
USER    
USER    NEWDPF move PE_ligand.pdbqt
USER    NEWDPF about 3.037000 5.209000 3.149000
USER    NEWDPF tran0 27.898697 39.326944 29.034725
USER    NEWDPF quaternion0 -0.380563 0.849429 0.010131 -0.365431
USER    NEWDPF axisangle0 -0.408839 0.912542 0.010883 -137.131733
USER    NEWDPF quat0 -0.408839 0.912542 0.010883 -137.131733
USER    NEWDPF dihe0 180.00 4.25 -179.97 -178.98 -152.34 163.53 -149.71 -37.10 -15.73 
USER  keepresnum = 1 
USER  
REMARK  9 active torsions:
REMARK  status: ('A' for Active; 'I' for Inactive)
REMARK    1  A    between atoms: C1_1  and  C2_2 
REMARK    2  A    between atoms: C1_1  and  C3_3 
REMARK    3  A    between atoms: C2_2  and  C4_4 
REMARK    4  A    between atoms: C3_3  and  C5_5 
REMARK    5  A    between atoms: C4_4  and  C6_6 
REMARK    6  A    between atoms: C5_5  and  C7_7 
REMARK    7  A    between atoms: C6_6  and  C8_8 
REMARK    8  A    between atoms: C7_7  and  C9_9 
REMARK    9  A    between atoms: C8_8  and  C10_10 
USER                              x       y       z     vdW  Elec       q    Type
USER                           _______ _______ _______ _____ _____    ______ ____
ROOT
ATOM      1  C1  MOL C   1      27.839  40.244  28.318 -0.65 -0.00    +0.000 C 
ENDROOT
BRANCH   1   2
ATOM      2  C2  MOL C   1      27.512  38.784  27.971 -0.66 -0.00    +0.000 C 
BRANCH   2   3
ATOM      3  C4  MOL C   1      27.655  37.961  29.293 -0.62 -0.00    +0.000 C 
BRANCH   3   4
ATOM      4  C6  MOL C   1      27.197  38.788  30.607 -0.48 -0.00    +0.000 C 
BRANCH   4   5
ATOM      5  C8  MOL C   1      26.034  38.224  31.392 -0.46 +0.00    -0.000 C 
BRANCH   5   6
ATOM      6  C10 MOL C   1      25.404  37.112  30.560 -0.52 +0.00    -0.005 C 
ATOM      7  C12 MOL C   1      23.940  37.227  30.260 -0.57 -0.00    +0.005 C 
ENDBRANCH   5   6
ENDBRANCH   4   5
ENDBRANCH   3   4
ENDBRANCH   2   3
ENDBRANCH   1   2
BRANCH   1   8
ATOM      8  C3  MOL C   1      29.377  40.237  28.685 -0.56 -0.00    +0.000 C 
BRANCH   8   9
ATOM      9  C5  MOL C   1      29.906  41.795  28.758 -0.75 -0.00    +0.000 C 
BRANCH   9  10
ATOM     10  C7  MOL C   1      30.126  42.393  30.198 -0.66 +0.00    -0.000 C 
BRANCH  10  11
ATOM     11  C9  MOL C   1      30.181  41.339  31.358 -0.66 +0.01    -0.005 C 
ATOM     12  C11 MOL C   1      29.943  42.117  32.698 -0.56 -0.00    +0.005 C 
ENDBRANCH  10  11
ENDBRANCH   9  10
ENDBRANCH   8   9
ENDBRANCH   1   8
TORSDOF 9
TER
ENDMDL
MODEL       33
USER    Run = 33
USER    DPF = lac3.dpf
USER  
USER    Estimated Free Energy of Binding    =   -4.43 kcal/mol  [=(1)+(2)+(3)-(4)]
USER    Estimated Inhibition Constant, Ki   =  565.57 uM (micromolar)  [Temperature = 298.15 K]
USER    
USER    (1) Final Intermolecular Energy     =   -6.56 kcal/mol
USER        vdW + Hbond + desolv Energy     =   -6.57 kcal/mol
USER        Electrostatic Energy            =   +0.00 kcal/mol
USER    (2) Final Total Internal Energy     =   -0.84 kcal/mol
USER    (3) Torsional Free Energy           =   +2.68 kcal/mol
USER    (4) Unbound System's Energy         =   -0.29 kcal/mol
USER    
USER    
USER    NEWDPF move PE_ligand.pdbqt
USER    NEWDPF about 3.037000 5.209000 3.149000
USER    NEWDPF tran0 27.995662 39.164226 29.316825
USER    NEWDPF quaternion0 -0.760201 -0.398721 0.510687 -0.048107
USER    NEWDPF axisangle0 -0.761082 -0.399183 0.511279 -174.485232
USER    NEWDPF quat0 -0.761082 -0.399183 0.511279 -174.485232
USER    NEWDPF dihe0 122.19 20.91 162.16 1.68 -133.32 142.40 10.61 48.52 39.91 
USER  keepresnum = 1 
USER  
REMARK  9 active torsions:
REMARK  status: ('A' for Active; 'I' for Inactive)
REMARK    1  A    between atoms: C1_1  and  C2_2 
REMARK    2  A    between atoms: C1_1  and  C3_3 
REMARK    3  A    between atoms: C2_2  and  C4_4 
REMARK    4  A    between atoms: C3_3  and  C5_5 
REMARK    5  A    between atoms: C4_4  and  C6_6 
REMARK    6  A    between atoms: C5_5  and  C7_7 
REMARK    7  A    between atoms: C6_6  and  C8_8 
REMARK    8  A    between atoms: C7_7  and  C9_9 
REMARK    9  A    between atoms: C8_8  and  C10_10 
USER                              x       y       z     vdW  Elec       q    Type
USER                           _______ _______ _______ _____ _____    ______ ____
ROOT
ATOM      1  C1  MOL C   1      27.848  38.245  28.616 -0.63 -0.00    +0.000 C 
ENDROOT
BRANCH   1   2
ATOM      2  C2  MOL C   1      27.956  39.716  28.190 -0.69 -0.00    +0.000 C 
BRANCH   2   3
ATOM      3  C4  MOL C   1      29.346  40.232  28.687 -0.57 -0.00    +0.000 C 
BRANCH   3   4
ATOM      4  C6  MOL C   1      29.466  41.846  28.673 -0.67 -0.00    +0.000 C 
BRANCH   4   5
ATOM      5  C8  MOL C   1      30.124  42.488  29.872 -0.71 +0.00    -0.000 C 
BRANCH   5   6
ATOM      6  C10 MOL C   1      29.882  41.586  31.077 -0.63 +0.01    -0.005 C 
ATOM      7  C12 MOL C   1      30.495  42.003  32.380 -0.54 -0.01    +0.005 C 
ENDBRANCH   5   6
ENDBRANCH   4   5
ENDBRANCH   3   4
ENDBRANCH   2   3
ENDBRANCH   1   2
BRANCH   1   8
ATOM      8  C3  MOL C   1      26.539  38.175  29.500 -0.53 -0.00    +0.000 C 
BRANCH   8   9
ATOM      9  C5  MOL C   1      26.979  38.014  31.079 -0.48 -0.00    +0.000 C 
BRANCH   9  10
ATOM     10  C7  MOL C   1      27.352  39.340  31.840 -0.41 +0.00    -0.000 C 
BRANCH  10  11
ATOM     11  C9  MOL C   1      28.131  39.141  33.186 -0.39 +0.00    -0.005 C 
ATOM     12  C11 MOL C   1      27.661  40.276  34.162 -0.31 -0.00    +0.005 C 
ENDBRANCH  10  11
ENDBRANCH   9  10
ENDBRANCH   8   9
ENDBRANCH   1   8
TORSDOF 9
TER
ENDMDL
MODEL       34
USER    Run = 34
USER    DPF = lac3.dpf
USER  
USER    Estimated Free Energy of Binding    =   -4.28 kcal/mol  [=(1)+(2)+(3)-(4)]
USER    Estimated Inhibition Constant, Ki   =  727.09 uM (micromolar)  [Temperature = 298.15 K]
USER    
USER    (1) Final Intermolecular Energy     =   -6.75 kcal/mol
USER        vdW + Hbond + desolv Energy     =   -6.75 kcal/mol
USER        Electrostatic Energy            =   -0.00 kcal/mol
USER    (2) Final Total Internal Energy     =   -0.50 kcal/mol
USER    (3) Torsional Free Energy           =   +2.68 kcal/mol
USER    (4) Unbound System's Energy         =   -0.29 kcal/mol
USER    
USER    
USER    NEWDPF move PE_ligand.pdbqt
USER    NEWDPF about 3.037000 5.209000 3.149000
USER    NEWDPF tran0 26.813143 38.140444 31.227259
USER    NEWDPF quaternion0 -0.977130 -0.118556 0.174166 -0.028782
USER    NEWDPF axisangle0 -0.977535 -0.118605 0.174238 -176.701418
USER    NEWDPF quat0 -0.977535 -0.118605 0.174238 -176.701418
USER    NEWDPF dihe0 114.15 -154.38 -175.48 7.52 -179.83 -157.18 -96.95 -22.76 -177.68 
USER  keepresnum = 1 
USER  
REMARK  9 active torsions:
REMARK  status: ('A' for Active; 'I' for Inactive)
REMARK    1  A    between atoms: C1_1  and  C2_2 
REMARK    2  A    between atoms: C1_1  and  C3_3 
REMARK    3  A    between atoms: C2_2  and  C4_4 
REMARK    4  A    between atoms: C3_3  and  C5_5 
REMARK    5  A    between atoms: C4_4  and  C6_6 
REMARK    6  A    between atoms: C5_5  and  C7_7 
REMARK    7  A    between atoms: C6_6  and  C8_8 
REMARK    8  A    between atoms: C7_7  and  C9_9 
REMARK    9  A    between atoms: C8_8  and  C10_10 
USER                              x       y       z     vdW  Elec       q    Type
USER                           _______ _______ _______ _____ _____    ______ ____
ROOT
ATOM      1  C1  MOL C   1      26.645  37.275  30.466 -0.50 -0.00    +0.000 C 
ENDROOT
BRANCH   1   2
ATOM      2  C2  MOL C   1      27.794  38.292  30.459 -0.57 -0.00    +0.000 C 
BRANCH   2   3
ATOM      3  C4  MOL C   1      28.356  38.331  29.000 -0.62 -0.00    +0.000 C 
BRANCH   3   4
ATOM      4  C6  MOL C   1      27.581  39.389  28.051 -0.69 -0.00    +0.000 C 
BRANCH   4   5
ATOM      5  C8  MOL C   1      28.140  40.792  28.000 -0.67 +0.00    -0.000 C 
BRANCH   5   6
ATOM      6  C10 MOL C   1      29.262  40.884  29.030 -0.65 +0.00    -0.005 C 
ATOM      7  C12 MOL C   1      30.122  42.112  28.997 -0.73 -0.01    +0.005 C 
ENDBRANCH   5   6
ENDBRANCH   4   5
ENDBRANCH   3   4
ENDBRANCH   2   3
ENDBRANCH   1   2
BRANCH   1   8
ATOM      8  C3  MOL C   1      25.339  38.138  30.247 -0.52 -0.00    +0.000 C 
BRANCH   8   9
ATOM      9  C5  MOL C   1      24.032  37.137  30.300 -0.57 -0.00    +0.000 C 
BRANCH   9  10
ATOM     10  C7  MOL C   1      22.734  37.716  30.978 -0.49 +0.00    -0.000 C 
BRANCH  10  11
ATOM     11  C9  MOL C   1      21.717  36.642  31.501 -0.39 +0.00    -0.005 C 
ATOM     12  C11 MOL C   1      22.561  35.474  32.122 -0.34 -0.00    +0.005 C 
ENDBRANCH  10  11
ENDBRANCH   9  10
ENDBRANCH   8   9
ENDBRANCH   1   8
TORSDOF 9
TER
ENDMDL
MODEL       35
USER    Run = 35
USER    DPF = lac3.dpf
USER  
USER    Estimated Free Energy of Binding    =   -4.96 kcal/mol  [=(1)+(2)+(3)-(4)]
USER    Estimated Inhibition Constant, Ki   =  231.15 uM (micromolar)  [Temperature = 298.15 K]
USER    
USER    (1) Final Intermolecular Energy     =   -7.23 kcal/mol
USER        vdW + Hbond + desolv Energy     =   -7.23 kcal/mol
USER        Electrostatic Energy            =   +0.00 kcal/mol
USER    (2) Final Total Internal Energy     =   -0.70 kcal/mol
USER    (3) Torsional Free Energy           =   +2.68 kcal/mol
USER    (4) Unbound System's Energy         =   -0.29 kcal/mol
USER    
USER    
USER    NEWDPF move PE_ligand.pdbqt
USER    NEWDPF about 3.037000 5.209000 3.149000
USER    NEWDPF tran0 27.791877 39.670604 28.686592
USER    NEWDPF quaternion0 0.356342 -0.833328 0.009082 0.422496
USER    NEWDPF axisangle0 0.393155 -0.919418 0.010021 130.015408
USER    NEWDPF quat0 0.393155 -0.919418 0.010021 130.015408
USER    NEWDPF dihe0 151.64 1.97 144.82 158.39 17.40 -179.93 -73.66 -32.94 -47.79 
USER  keepresnum = 1 
USER  
REMARK  9 active torsions:
REMARK  status: ('A' for Active; 'I' for Inactive)
REMARK    1  A    between atoms: C1_1  and  C2_2 
REMARK    2  A    between atoms: C1_1  and  C3_3 
REMARK    3  A    between atoms: C2_2  and  C4_4 
REMARK    4  A    between atoms: C3_3  and  C5_5 
REMARK    5  A    between atoms: C4_4  and  C6_6 
REMARK    6  A    between atoms: C5_5  and  C7_7 
REMARK    7  A    between atoms: C6_6  and  C8_8 
REMARK    8  A    between atoms: C7_7  and  C9_9 
REMARK    9  A    between atoms: C8_8  and  C10_10 
USER                              x       y       z     vdW  Elec       q    Type
USER                           _______ _______ _______ _____ _____    ______ ____
ROOT
ATOM      1  C1  MOL C   1      27.860  40.607  27.997 -0.67 -0.00    +0.000 C 
ENDROOT
BRANCH   1   2
ATOM      2  C2  MOL C   1      27.517  39.174  27.567 -0.69 -0.00    +0.000 C 
BRANCH   2   3
ATOM      3  C4  MOL C   1      28.228  38.215  28.578 -0.61 -0.00    +0.000 C 
BRANCH   3   4
ATOM      4  C6  MOL C   1      27.192  37.431  29.543 -0.61 -0.00    +0.000 C 
BRANCH   4   5
ATOM      5  C8  MOL C   1      26.511  38.249  30.616 -0.51 +0.00    -0.000 C 
BRANCH   5   6
ATOM      6  C10 MOL C   1      27.574  39.108  31.293 -0.48 +0.00    -0.005 C 
ATOM      7  C12 MOL C   1      27.326  39.508  32.717 -0.40 -0.00    +0.005 C 
ENDBRANCH   5   6
ENDBRANCH   4   5
ENDBRANCH   3   4
ENDBRANCH   2   3
ENDBRANCH   1   2
BRANCH   1   8
ATOM      8  C3  MOL C   1      29.339  40.521  28.549 -0.65 -0.00    +0.000 C 
BRANCH   8   9
ATOM      9  C5  MOL C   1      29.881  42.049  28.841 -0.74 -0.00    +0.000 C 
BRANCH   9  10
ATOM     10  C7  MOL C   1      30.311  42.368  30.321 -0.65 +0.00    -0.000 C 
BRANCH  10  11
ATOM     11  C9  MOL C   1      30.002  41.239  31.365 -0.64 +0.01    -0.005 C 
ATOM     12  C11 MOL C   1      30.125  41.883  32.789 -0.59 -0.01    +0.005 C 
ENDBRANCH  10  11
ENDBRANCH   9  10
ENDBRANCH   8   9
ENDBRANCH   1   8
TORSDOF 9
TER
ENDMDL
MODEL       36
USER    Run = 36
USER    DPF = lac3.dpf
USER  
USER    Estimated Free Energy of Binding    =   -4.53 kcal/mol  [=(1)+(2)+(3)-(4)]
USER    Estimated Inhibition Constant, Ki   =  479.84 uM (micromolar)  [Temperature = 298.15 K]
USER    
USER    (1) Final Intermolecular Energy     =   -7.03 kcal/mol
USER        vdW + Hbond + desolv Energy     =   -7.03 kcal/mol
USER        Electrostatic Energy            =   +0.00 kcal/mol
USER    (2) Final Total Internal Energy     =   -0.46 kcal/mol
USER    (3) Torsional Free Energy           =   +2.68 kcal/mol
USER    (4) Unbound System's Energy         =   -0.29 kcal/mol
USER    
USER    
USER    NEWDPF move PE_ligand.pdbqt
USER    NEWDPF about 3.037000 5.209000 3.149000
USER    NEWDPF tran0 27.841867 38.751036 28.976245
USER    NEWDPF quaternion0 -0.466438 -0.659911 0.508445 0.297383
USER    NEWDPF axisangle0 -0.488540 -0.691181 0.532538 145.399044
USER    NEWDPF quat0 -0.488540 -0.691181 0.532538 145.399044
USER    NEWDPF dihe0 138.83 -32.47 54.08 -143.44 13.26 155.31 171.03 83.48 55.77 
USER  keepresnum = 1 
USER  
REMARK  9 active torsions:
REMARK  status: ('A' for Active; 'I' for Inactive)
REMARK    1  A    between atoms: C1_1  and  C2_2 
REMARK    2  A    between atoms: C1_1  and  C3_3 
REMARK    3  A    between atoms: C2_2  and  C4_4 
REMARK    4  A    between atoms: C3_3  and  C5_5 
REMARK    5  A    between atoms: C4_4  and  C6_6 
REMARK    6  A    between atoms: C5_5  and  C7_7 
REMARK    7  A    between atoms: C6_6  and  C8_8 
REMARK    8  A    between atoms: C7_7  and  C9_9 
REMARK    9  A    between atoms: C8_8  and  C10_10 
USER                              x       y       z     vdW  Elec       q    Type
USER                           _______ _______ _______ _____ _____    ______ ____
ROOT
ATOM      1  C1  MOL C   1      28.627  38.039  28.493 -0.51 -0.00    +0.000 C 
ENDROOT
BRANCH   1   2
ATOM      2  C2  MOL C   1      27.483  38.767  27.773 -0.65 -0.00    +0.000 C 
BRANCH   2   3
ATOM      3  C4  MOL C   1      27.910  40.267  27.646 -0.67 -0.00    +0.000 C 
BRANCH   3   4
ATOM      4  C6  MOL C   1      29.313  40.591  28.386 -0.67 -0.00    +0.000 C 
BRANCH   4   5
ATOM      5  C8  MOL C   1      29.277  40.695  29.893 -0.47 +0.00    -0.000 C 
BRANCH   5   6
ATOM      6  C10 MOL C   1      30.116  41.902  30.298 -0.71 +0.01    -0.005 C 
ATOM      7  C12 MOL C   1      30.502  42.016  31.742 -0.66 -0.01    +0.005 C 
ENDBRANCH   5   6
ENDBRANCH   4   5
ENDBRANCH   3   4
ENDBRANCH   2   3
ENDBRANCH   1   2
BRANCH   1   8
ATOM      8  C3  MOL C   1      27.909  37.064  29.510 -0.58 -0.00    +0.000 C 
BRANCH   8   9
ATOM      9  C5  MOL C   1      27.254  37.963  30.725 -0.52 -0.00    +0.000 C 
BRANCH   9  10
ATOM     10  C7  MOL C   1      25.734  38.344  30.573 -0.50 +0.00    -0.000 C 
BRANCH  10  11
ATOM     11  C9  MOL C   1      24.773  37.145  30.258 -0.56 +0.00    -0.005 C 
ATOM     12  C11 MOL C   1      23.321  37.611  30.626 -0.53 -0.00    +0.005 C 
ENDBRANCH  10  11
ENDBRANCH   9  10
ENDBRANCH   8   9
ENDBRANCH   1   8
TORSDOF 9
TER
ENDMDL
MODEL       37
USER    Run = 37
USER    DPF = lac3.dpf
USER  
USER    Estimated Free Energy of Binding    =   -5.14 kcal/mol  [=(1)+(2)+(3)-(4)]
USER    Estimated Inhibition Constant, Ki   =  171.06 uM (micromolar)  [Temperature = 298.15 K]
USER    
USER    (1) Final Intermolecular Energy     =   -7.51 kcal/mol
USER        vdW + Hbond + desolv Energy     =   -7.51 kcal/mol
USER        Electrostatic Energy            =   +0.00 kcal/mol
USER    (2) Final Total Internal Energy     =   -0.60 kcal/mol
USER    (3) Torsional Free Energy           =   +2.68 kcal/mol
USER    (4) Unbound System's Energy         =   -0.29 kcal/mol
USER    
USER    
USER    NEWDPF move PE_ligand.pdbqt
USER    NEWDPF about 3.037000 5.209000 3.149000
USER    NEWDPF tran0 27.458918 39.015944 28.867760
USER    NEWDPF quaternion0 0.600707 0.598795 -0.407190 -0.338808
USER    NEWDPF axisangle0 0.638469 0.636437 -0.432787 -140.391417
USER    NEWDPF quat0 0.638469 0.636437 -0.432787 -140.391417
USER    NEWDPF dihe0 -85.41 37.33 -27.40 -129.45 -102.86 -168.08 -168.45 61.08 46.76 
USER  keepresnum = 1 
USER  
REMARK  9 active torsions:
REMARK  status: ('A' for Active; 'I' for Inactive)
REMARK    1  A    between atoms: C1_1  and  C2_2 
REMARK    2  A    between atoms: C1_1  and  C3_3 
REMARK    3  A    between atoms: C2_2  and  C4_4 
REMARK    4  A    between atoms: C3_3  and  C5_5 
REMARK    5  A    between atoms: C4_4  and  C6_6 
REMARK    6  A    between atoms: C5_5  and  C7_7 
REMARK    7  A    between atoms: C6_6  and  C8_8 
REMARK    8  A    between atoms: C7_7  and  C9_9 
REMARK    9  A    between atoms: C8_8  and  C10_10 
USER                              x       y       z     vdW  Elec       q    Type
USER                           _______ _______ _______ _____ _____    ______ ____
ROOT
ATOM      1  C1  MOL C   1      28.274  38.242  28.562 -0.60 -0.00    +0.000 C 
ENDROOT
BRANCH   1   2
ATOM      2  C2  MOL C   1      27.514  39.193  27.626 -0.70 -0.00    +0.000 C 
BRANCH   2   3
ATOM      3  C4  MOL C   1      27.956  40.646  28.000 -0.68 -0.00    +0.000 C 
BRANCH   3   4
ATOM      4  C6  MOL C   1      29.308  40.687  28.890 -0.67 -0.00    +0.000 C 
BRANCH   4   5
ATOM      5  C8  MOL C   1      29.969  42.036  29.058 -0.74 +0.00    -0.000 C 
BRANCH   5   6
ATOM      6  C10 MOL C   1      30.498  42.122  30.485 -0.73 +0.01    -0.005 C 
ATOM      7  C12 MOL C   1      29.756  41.355  31.539 -0.63 -0.01    +0.005 C 
ENDBRANCH   5   6
ENDBRANCH   4   5
ENDBRANCH   3   4
ENDBRANCH   2   3
ENDBRANCH   1   2
BRANCH   1   8
ATOM      8  C3  MOL C   1      27.161  37.297  29.168 -0.63 -0.00    +0.000 C 
BRANCH   8   9
ATOM      9  C5  MOL C   1      26.662  37.929  30.606 -0.53 -0.00    +0.000 C 
BRANCH   9  10
ATOM     10  C7  MOL C   1      25.106  38.022  30.826 -0.50 +0.00    -0.000 C 
BRANCH  10  11
ATOM     11  C9  MOL C   1      24.357  36.646  30.894 -0.54 +0.00    -0.005 C 
ATOM     12  C11 MOL C   1      23.153  36.728  29.891 -0.57 -0.00    +0.005 C 
ENDBRANCH  10  11
ENDBRANCH   9  10
ENDBRANCH   8   9
ENDBRANCH   1   8
TORSDOF 9
TER
ENDMDL
MODEL       38
USER    Run = 38
USER    DPF = lac3.dpf
USER  
USER    Estimated Free Energy of Binding    =   -4.29 kcal/mol  [=(1)+(2)+(3)-(4)]
USER    Estimated Inhibition Constant, Ki   =  719.15 uM (micromolar)  [Temperature = 298.15 K]
USER    
USER    (1) Final Intermolecular Energy     =   -6.75 kcal/mol
USER        vdW + Hbond + desolv Energy     =   -6.75 kcal/mol
USER        Electrostatic Energy            =   -0.00 kcal/mol
USER    (2) Final Total Internal Energy     =   -0.51 kcal/mol
USER    (3) Torsional Free Energy           =   +2.68 kcal/mol
USER    (4) Unbound System's Energy         =   -0.29 kcal/mol
USER    
USER    
USER    NEWDPF move PE_ligand.pdbqt
USER    NEWDPF about 3.037000 5.209000 3.149000
USER    NEWDPF tran0 27.059238 38.342606 31.145560
USER    NEWDPF quaternion0 0.988035 0.028742 -0.151523 -0.000983
USER    NEWDPF axisangle0 0.988036 0.028742 -0.151523 -179.887341
USER    NEWDPF quat0 0.988036 0.028742 -0.151523 -179.887341
USER    NEWDPF dihe0 -167.85 -105.37 -126.11 124.28 156.20 -20.71 -109.36 43.40 -174.52 
USER  keepresnum = 1 
USER  
REMARK  9 active torsions:
REMARK  status: ('A' for Active; 'I' for Inactive)
REMARK    1  A    between atoms: C1_1  and  C2_2 
REMARK    2  A    between atoms: C1_1  and  C3_3 
REMARK    3  A    between atoms: C2_2  and  C4_4 
REMARK    4  A    between atoms: C3_3  and  C5_5 
REMARK    5  A    between atoms: C4_4  and  C6_6 
REMARK    6  A    between atoms: C5_5  and  C7_7 
REMARK    7  A    between atoms: C6_6  and  C8_8 
REMARK    8  A    between atoms: C7_7  and  C9_9 
REMARK    9  A    between atoms: C8_8  and  C10_10 
USER                              x       y       z     vdW  Elec       q    Type
USER                           _______ _______ _______ _____ _____    ______ ____
ROOT
ATOM      1  C1  MOL C   1      26.778  37.453  30.448 -0.52 -0.00    +0.000 C 
ENDROOT
BRANCH   1   2
ATOM      2  C2  MOL C   1      28.084  38.261  30.425 -0.58 -0.00    +0.000 C 
BRANCH   2   3
ATOM      3  C4  MOL C   1      28.663  38.143  28.977 -0.62 -0.00    +0.000 C 
BRANCH   3   4
ATOM      4  C6  MOL C   1      27.869  39.054  27.900 -0.64 -0.00    +0.000 C 
BRANCH   4   5
ATOM      5  C8  MOL C   1      27.981  40.553  28.066 -0.67 +0.00    -0.000 C 
BRANCH   5   6
ATOM      6  C10 MOL C   1      29.438  40.880  28.377 -0.67 +0.00    -0.005 C 
ATOM      7  C12 MOL C   1      29.744  41.402  29.749 -0.62 -0.01    +0.005 C 
ENDBRANCH   5   6
ENDBRANCH   4   5
ENDBRANCH   3   4
ENDBRANCH   2   3
ENDBRANCH   1   2
BRANCH   1   8
ATOM      8  C3  MOL C   1      25.649  38.499  30.086 -0.45 -0.00    +0.000 C 
BRANCH   8   9
ATOM      9  C5  MOL C   1      24.712  38.742  31.419 -0.45 -0.00    +0.000 C 
BRANCH   9  10
ATOM     10  C7  MOL C   1      23.613  37.652  31.710 -0.42 +0.00    -0.000 C 
BRANCH  10  11
ATOM     11  C9  MOL C   1      22.841  37.129  30.450 -0.52 +0.00    -0.005 C 
ATOM     12  C11 MOL C   1      23.665  35.926  29.873 -0.60 -0.00    +0.005 C 
ENDBRANCH  10  11
ENDBRANCH   9  10
ENDBRANCH   8   9
ENDBRANCH   1   8
TORSDOF 9
TER
ENDMDL
MODEL       39
USER    Run = 39
USER    DPF = lac3.dpf
USER  
USER    Estimated Free Energy of Binding    =   -4.67 kcal/mol  [=(1)+(2)+(3)-(4)]
USER    Estimated Inhibition Constant, Ki   =  375.10 uM (micromolar)  [Temperature = 298.15 K]
USER    
USER    (1) Final Intermolecular Energy     =   -6.95 kcal/mol
USER        vdW + Hbond + desolv Energy     =   -6.95 kcal/mol
USER        Electrostatic Energy            =   -0.00 kcal/mol
USER    (2) Final Total Internal Energy     =   -0.69 kcal/mol
USER    (3) Torsional Free Energy           =   +2.68 kcal/mol
USER    (4) Unbound System's Energy         =   -0.29 kcal/mol
USER    
USER    
USER    NEWDPF move PE_ligand.pdbqt
USER    NEWDPF about 3.037000 5.209000 3.149000
USER    NEWDPF tran0 27.020382 38.399771 29.659927
USER    NEWDPF quaternion0 -0.724690 0.276314 -0.593384 0.215336
USER    NEWDPF axisangle0 -0.742100 0.282952 -0.607640 155.129523
USER    NEWDPF quat0 -0.742100 0.282952 -0.607640 155.129523
USER    NEWDPF dihe0 -138.72 -26.24 141.89 -154.97 -139.81 159.57 154.40 58.15 50.27 
USER  keepresnum = 1 
USER  
REMARK  9 active torsions:
REMARK  status: ('A' for Active; 'I' for Inactive)
REMARK    1  A    between atoms: C1_1  and  C2_2 
REMARK    2  A    between atoms: C1_1  and  C3_3 
REMARK    3  A    between atoms: C2_2  and  C4_4 
REMARK    4  A    between atoms: C3_3  and  C5_5 
REMARK    5  A    between atoms: C4_4  and  C6_6 
REMARK    6  A    between atoms: C5_5  and  C7_7 
REMARK    7  A    between atoms: C6_6  and  C8_8 
REMARK    8  A    between atoms: C7_7  and  C9_9 
REMARK    9  A    between atoms: C8_8  and  C10_10 
USER                              x       y       z     vdW  Elec       q    Type
USER                           _______ _______ _______ _____ _____    ______ ____
ROOT
ATOM      1  C1  MOL C   1      26.992  37.268  29.385 -0.61 -0.00    +0.000 C 
ENDROOT
BRANCH   1   2
ATOM      2  C2  MOL C   1      27.378  37.874  30.742 -0.50 -0.00    +0.000 C 
BRANCH   2   3
ATOM      3  C4  MOL C   1      26.069  38.462  31.365 -0.45 -0.00    +0.000 C 
BRANCH   3   4
ATOM      4  C6  MOL C   1      24.919  38.752  30.264 -0.46 -0.00    +0.000 C 
BRANCH   4   5
ATOM      5  C8  MOL C   1      23.537  38.220  30.569 -0.51 +0.00    -0.000 C 
BRANCH   5   6
ATOM      6  C10 MOL C   1      23.681  36.758  30.979 -0.52 +0.00    -0.005 C 
ATOM      7  C12 MOL C   1      23.765  35.743  29.879 -0.58 -0.00    +0.005 C 
ENDBRANCH   5   6
ENDBRANCH   4   5
ENDBRANCH   3   4
ENDBRANCH   2   3
ENDBRANCH   1   2
BRANCH   1   8
ATOM      8  C3  MOL C   1      28.086  37.804  28.377 -0.63 -0.00    +0.000 C 
BRANCH   8   9
ATOM      9  C5  MOL C   1      27.483  39.128  27.603 -0.69 -0.00    +0.000 C 
BRANCH   9  10
ATOM     10  C7  MOL C   1      27.953  40.529  28.144 -0.65 +0.00    -0.000 C 
BRANCH  10  11
ATOM     11  C9  MOL C   1      29.461  40.611  28.567 -0.62 +0.00    -0.005 C 
ATOM     12  C11 MOL C   1      29.805  42.130  28.753 -0.74 -0.01    +0.005 C 
ENDBRANCH  10  11
ENDBRANCH   9  10
ENDBRANCH   8   9
ENDBRANCH   1   8
TORSDOF 9
TER
ENDMDL
MODEL       40
USER    Run = 40
USER    DPF = lac3.dpf
USER  
USER    Estimated Free Energy of Binding    =   -4.54 kcal/mol  [=(1)+(2)+(3)-(4)]
USER    Estimated Inhibition Constant, Ki   =  471.03 uM (micromolar)  [Temperature = 298.15 K]
USER    
USER    (1) Final Intermolecular Energy     =   -6.74 kcal/mol
USER        vdW + Hbond + desolv Energy     =   -6.74 kcal/mol
USER        Electrostatic Energy            =   -0.00 kcal/mol
USER    (2) Final Total Internal Energy     =   -0.77 kcal/mol
USER    (3) Torsional Free Energy           =   +2.68 kcal/mol
USER    (4) Unbound System's Energy         =   -0.29 kcal/mol
USER    
USER    
USER    NEWDPF move PE_ligand.pdbqt
USER    NEWDPF about 3.037000 5.209000 3.149000
USER    NEWDPF tran0 27.917131 37.930388 29.460706
USER    NEWDPF quaternion0 -0.534273 0.159060 0.808526 0.188512
USER    NEWDPF axisangle0 -0.544027 0.161964 0.823287 158.268032
USER    NEWDPF quat0 -0.544027 0.161964 0.823287 158.268032
USER    NEWDPF dihe0 149.37 -174.56 -176.53 -100.90 -127.96 -38.07 72.56 -93.47 -19.69 
USER  keepresnum = 1 
USER  
REMARK  9 active torsions:
REMARK  status: ('A' for Active; 'I' for Inactive)
REMARK    1  A    between atoms: C1_1  and  C2_2 
REMARK    2  A    between atoms: C1_1  and  C3_3 
REMARK    3  A    between atoms: C2_2  and  C4_4 
REMARK    4  A    between atoms: C3_3  and  C5_5 
REMARK    5  A    between atoms: C4_4  and  C6_6 
REMARK    6  A    between atoms: C5_5  and  C7_7 
REMARK    7  A    between atoms: C6_6  and  C8_8 
REMARK    8  A    between atoms: C7_7  and  C9_9 
REMARK    9  A    between atoms: C8_8  and  C10_10 
USER                              x       y       z     vdW  Elec       q    Type
USER                           _______ _______ _______ _____ _____    ______ ____
ROOT
ATOM      1  C1  MOL C   1      27.373  37.254  30.238 -0.49 -0.00    +0.000 C 
ENDROOT
BRANCH   1   2
ATOM      2  C2  MOL C   1      27.159  37.261  28.717 -0.62 -0.00    +0.000 C 
BRANCH   2   3
ATOM      3  C4  MOL C   1      28.120  38.345  28.129 -0.53 -0.00    +0.000 C 
BRANCH   3   4
ATOM      4  C6  MOL C   1      27.360  39.720  27.738 -0.66 -0.00    +0.000 C 
BRANCH   4   5
ATOM      5  C8  MOL C   1      28.108  41.007  28.000 -0.62 +0.00    -0.000 C 
BRANCH   5   6
ATOM      6  C10 MOL C   1      29.380  40.660  28.766 -0.67 +0.00    -0.005 C 
ATOM      7  C12 MOL C   1      29.979  41.736  29.622 -0.68 -0.01    +0.005 C 
ENDBRANCH   5   6
ENDBRANCH   4   5
ENDBRANCH   3   4
ENDBRANCH   2   3
ENDBRANCH   1   2
BRANCH   1   8
ATOM      8  C3  MOL C   1      26.928  38.694  30.715 -0.48 -0.00    +0.000 C 
BRANCH   8   9
ATOM      9  C5  MOL C   1      25.549  38.550  31.605 -0.43 -0.00    +0.000 C 
BRANCH   9  10
ATOM     10  C7  MOL C   1      24.196  38.823  30.848 -0.50 +0.00    -0.000 C 
BRANCH  10  11
ATOM     11  C9  MOL C   1      23.497  37.552  30.251 -0.54 +0.00    -0.005 C 
ATOM     12  C11 MOL C   1      24.097  36.307  30.992 -0.53 -0.00    +0.005 C 
ENDBRANCH  10  11
ENDBRANCH   9  10
ENDBRANCH   8   9
ENDBRANCH   1   8
TORSDOF 9
TER
ENDMDL
MODEL       41
USER    Run = 41
USER    DPF = lac3.dpf
USER  
USER    Estimated Free Energy of Binding    =   -4.16 kcal/mol  [=(1)+(2)+(3)-(4)]
USER    Estimated Inhibition Constant, Ki   =  887.30 uM (micromolar)  [Temperature = 298.15 K]
USER    
USER    (1) Final Intermolecular Energy     =   -6.36 kcal/mol
USER        vdW + Hbond + desolv Energy     =   -6.36 kcal/mol
USER        Electrostatic Energy            =   -0.00 kcal/mol
USER    (2) Final Total Internal Energy     =   -0.78 kcal/mol
USER    (3) Torsional Free Energy           =   +2.68 kcal/mol
USER    (4) Unbound System's Energy         =   -0.29 kcal/mol
USER    
USER    
USER    NEWDPF move PE_ligand.pdbqt
USER    NEWDPF about 3.037000 5.209000 3.149000
USER    NEWDPF tran0 27.059924 39.034384 30.915338
USER    NEWDPF quaternion0 0.423667 0.207280 0.877379 0.088019
USER    NEWDPF axisangle0 0.425318 0.208087 0.880798 169.900685
USER    NEWDPF quat0 0.425318 0.208087 0.880798 169.900685
USER    NEWDPF dihe0 -176.15 165.09 -135.56 62.62 -136.32 123.12 -140.71 29.27 18.60 
USER  keepresnum = 1 
USER  
REMARK  9 active torsions:
REMARK  status: ('A' for Active; 'I' for Inactive)
REMARK    1  A    between atoms: C1_1  and  C2_2 
REMARK    2  A    between atoms: C1_1  and  C3_3 
REMARK    3  A    between atoms: C2_2  and  C4_4 
REMARK    4  A    between atoms: C3_3  and  C5_5 
REMARK    5  A    between atoms: C4_4  and  C6_6 
REMARK    6  A    between atoms: C5_5  and  C7_7 
REMARK    7  A    between atoms: C6_6  and  C8_8 
REMARK    8  A    between atoms: C7_7  and  C9_9 
REMARK    9  A    between atoms: C8_8  and  C10_10 
USER                              x       y       z     vdW  Elec       q    Type
USER                           _______ _______ _______ _____ _____    ______ ____
ROOT
ATOM      1  C1  MOL C   1      27.954  38.577  31.505 -0.49 -0.00    +0.000 C 
ENDROOT
BRANCH   1   2
ATOM      2  C2  MOL C   1      26.635  39.097  32.095 -0.40 -0.00    +0.000 C 
BRANCH   2   3
ATOM      3  C4  MOL C   1      25.501  38.689  31.098 -0.42 -0.00    +0.000 C 
BRANCH   3   4
ATOM      4  C6  MOL C   1      25.645  37.168  30.563 -0.52 -0.00    +0.000 C 
BRANCH   4   5
ATOM      5  C8  MOL C   1      24.387  36.329  30.558 -0.54 +0.00    -0.000 C 
BRANCH   5   6
ATOM      6  C10 MOL C   1      23.212  37.252  30.254 -0.55 +0.00    -0.005 C 
ATOM      7  C12 MOL C   1      22.123  37.337  31.282 -0.44 -0.00    +0.005 C 
ENDBRANCH   5   6
ENDBRANCH   4   5
ENDBRANCH   3   4
ENDBRANCH   2   3
ENDBRANCH   1   2
BRANCH   1   8
ATOM      8  C3  MOL C   1      28.632  39.846  30.850 -0.51 -0.00    +0.000 C 
BRANCH   8   9
ATOM      9  C5  MOL C   1      28.975  39.504  29.275 -0.56 -0.00    +0.000 C 
BRANCH   9  10
ATOM     10  C7  MOL C   1      27.744  39.215  28.338 -0.67 +0.00    -0.000 C 
BRANCH  10  11
ATOM     11  C9  MOL C   1      27.500  37.702  28.003 -0.58 +0.00    -0.005 C 
ATOM     12  C11 MOL C   1      28.638  36.886  28.711 -0.68 -0.00    +0.005 C 
ENDBRANCH  10  11
ENDBRANCH   9  10
ENDBRANCH   8   9
ENDBRANCH   1   8
TORSDOF 9
TER
ENDMDL
MODEL       42
USER    Run = 42
USER    DPF = lac3.dpf
USER  
USER    Estimated Free Energy of Binding    =   -4.19 kcal/mol  [=(1)+(2)+(3)-(4)]
USER    Estimated Inhibition Constant, Ki   =  843.54 uM (micromolar)  [Temperature = 298.15 K]
USER    
USER    (1) Final Intermolecular Energy     =   -6.55 kcal/mol
USER        vdW + Hbond + desolv Energy     =   -6.55 kcal/mol
USER        Electrostatic Energy            =   +0.00 kcal/mol
USER    (2) Final Total Internal Energy     =   -0.61 kcal/mol
USER    (3) Torsional Free Energy           =   +2.68 kcal/mol
USER    (4) Unbound System's Energy         =   -0.29 kcal/mol
USER    
USER    
USER    NEWDPF move PE_ligand.pdbqt
USER    NEWDPF about 3.037000 5.209000 3.149000
USER    NEWDPF tran0 27.459396 38.725886 29.433690
USER    NEWDPF quaternion0 0.192449 -0.645274 0.484454 0.558470
USER    NEWDPF axisangle0 0.231999 -0.777884 0.584015 112.099853
USER    NEWDPF quat0 0.231999 -0.777884 0.584015 112.099853
USER    NEWDPF dihe0 -145.38 153.26 -171.46 -98.69 -86.11 -71.11 9.61 32.97 -12.04 
USER  keepresnum = 1 
USER  
REMARK  9 active torsions:
REMARK  status: ('A' for Active; 'I' for Inactive)
REMARK    1  A    between atoms: C1_1  and  C2_2 
REMARK    2  A    between atoms: C1_1  and  C3_3 
REMARK    3  A    between atoms: C2_2  and  C4_4 
REMARK    4  A    between atoms: C3_3  and  C5_5 
REMARK    5  A    between atoms: C4_4  and  C6_6 
REMARK    6  A    between atoms: C5_5  and  C7_7 
REMARK    7  A    between atoms: C6_6  and  C8_8 
REMARK    8  A    between atoms: C7_7  and  C9_9 
REMARK    9  A    between atoms: C8_8  and  C10_10 
USER                              x       y       z     vdW  Elec       q    Type
USER                           _______ _______ _______ _____ _____    ______ ____
ROOT
ATOM      1  C1  MOL C   1      28.438  38.901  28.826 -0.62 -0.00    +0.000 C 
ENDROOT
BRANCH   1   2
ATOM      2  C2  MOL C   1      27.490  37.698  28.713 -0.64 -0.00    +0.000 C 
BRANCH   2   3
ATOM      3  C4  MOL C   1      26.237  38.025  29.590 -0.48 -0.00    +0.000 C 
BRANCH   3   4
ATOM      4  C6  MOL C   1      25.310  36.730  29.880 -0.50 -0.00    +0.000 C 
BRANCH   4   5
ATOM      5  C8  MOL C   1      24.021  36.972  30.632 -0.56 +0.00    -0.000 C 
BRANCH   5   6
ATOM      6  C10 MOL C   1      23.959  38.454  30.986 -0.51 +0.00    -0.005 C 
ATOM      7  C12 MOL C   1      24.561  38.872  32.294 -0.37 -0.00    +0.005 C 
ENDBRANCH   5   6
ENDBRANCH   4   5
ENDBRANCH   3   4
ENDBRANCH   2   3
ENDBRANCH   1   2
BRANCH   1   8
ATOM      8  C3  MOL C   1      28.998  38.837  30.303 -0.48 -0.00    +0.000 C 
BRANCH   8   9
ATOM      9  C5  MOL C   1      28.629  40.250  31.066 -0.34 -0.00    +0.000 C 
BRANCH   9  10
ATOM     10  C7  MOL C   1      29.810  40.967  31.820 -0.59 +0.00    -0.000 C 
BRANCH  10  11
ATOM     11  C9  MOL C   1      30.537  42.092  31.005 -0.74 +0.01    -0.005 C 
ATOM     12  C11 MOL C   1      30.080  41.946  29.512 -0.72 -0.01    +0.005 C 
ENDBRANCH  10  11
ENDBRANCH   9  10
ENDBRANCH   8   9
ENDBRANCH   1   8
TORSDOF 9
TER
ENDMDL
MODEL       43
USER    Run = 43
USER    DPF = lac3.dpf
USER  
USER    Estimated Free Energy of Binding    =   -4.41 kcal/mol  [=(1)+(2)+(3)-(4)]
USER    Estimated Inhibition Constant, Ki   =  581.26 uM (micromolar)  [Temperature = 298.15 K]
USER    
USER    (1) Final Intermolecular Energy     =   -6.90 kcal/mol
USER        vdW + Hbond + desolv Energy     =   -6.89 kcal/mol
USER        Electrostatic Energy            =   -0.00 kcal/mol
USER    (2) Final Total Internal Energy     =   -0.49 kcal/mol
USER    (3) Torsional Free Energy           =   +2.68 kcal/mol
USER    (4) Unbound System's Energy         =   -0.29 kcal/mol
USER    
USER    
USER    NEWDPF move PE_ligand.pdbqt
USER    NEWDPF about 3.037000 5.209000 3.149000
USER    NEWDPF tran0 27.029395 37.989441 29.510603
USER    NEWDPF quaternion0 -0.192793 -0.104804 0.166506 0.961313
USER    NEWDPF axisangle0 -0.699899 -0.380473 0.604469 31.978637
USER    NEWDPF quat0 -0.699899 -0.380473 0.604469 31.978637
USER    NEWDPF dihe0 147.84 -106.19 134.72 180.00 179.96 179.29 -160.54 -5.88 17.43 
USER  keepresnum = 1 
USER  
REMARK  9 active torsions:
REMARK  status: ('A' for Active; 'I' for Inactive)
REMARK    1  A    between atoms: C1_1  and  C2_2 
REMARK    2  A    between atoms: C1_1  and  C3_3 
REMARK    3  A    between atoms: C2_2  and  C4_4 
REMARK    4  A    between atoms: C3_3  and  C5_5 
REMARK    5  A    between atoms: C4_4  and  C6_6 
REMARK    6  A    between atoms: C5_5  and  C7_7 
REMARK    7  A    between atoms: C6_6  and  C8_8 
REMARK    8  A    between atoms: C7_7  and  C9_9 
REMARK    9  A    between atoms: C8_8  and  C10_10 
USER                              x       y       z     vdW  Elec       q    Type
USER                           _______ _______ _______ _____ _____    ______ ____
ROOT
ATOM      1  C1  MOL C   1      27.349  38.475  30.520 -0.54 -0.00    +0.000 C 
ENDROOT
BRANCH   1   2
ATOM      2  C2  MOL C   1      28.229  37.629  29.589 -0.63 -0.00    +0.000 C 
BRANCH   2   3
ATOM      3  C4  MOL C   1      27.820  37.992  28.124 -0.61 -0.00    +0.000 C 
BRANCH   3   4
ATOM      4  C6  MOL C   1      27.150  39.461  28.000 -0.65 -0.00    +0.000 C 
BRANCH   4   5
ATOM      5  C8  MOL C   1      28.088  40.614  27.727 -0.59 +0.00    -0.000 C 
BRANCH   5   6
ATOM      6  C10 MOL C   1      29.147  40.623  28.825 -0.68 +0.00    -0.005 C 
ATOM      7  C12 MOL C   1      29.841  41.924  29.096 -0.73 -0.01    +0.005 C 
ENDBRANCH   5   6
ENDBRANCH   4   5
ENDBRANCH   3   4
ENDBRANCH   2   3
ENDBRANCH   1   2
BRANCH   1   8
ATOM      8  C3  MOL C   1      26.205  37.494  30.997 -0.47 -0.00    +0.000 C 
BRANCH   8   9
ATOM      9  C5  MOL C   1      24.945  38.392  31.563 -0.44 -0.00    +0.000 C 
BRANCH   9  10
ATOM     10  C7  MOL C   1      23.568  38.211  30.823 -0.52 +0.00    -0.000 C 
BRANCH  10  11
ATOM     11  C9  MOL C   1      23.475  36.959  29.883 -0.56 +0.00    -0.005 C 
ATOM     12  C11 MOL C   1      23.007  35.752  30.770 -0.48 -0.00    +0.005 C 
ENDBRANCH  10  11
ENDBRANCH   9  10
ENDBRANCH   8   9
ENDBRANCH   1   8
TORSDOF 9
TER
ENDMDL
MODEL       44
USER    Run = 44
USER    DPF = lac3.dpf
USER  
USER    Estimated Free Energy of Binding    =   -4.55 kcal/mol  [=(1)+(2)+(3)-(4)]
USER    Estimated Inhibition Constant, Ki   =  459.90 uM (micromolar)  [Temperature = 298.15 K]
USER    
USER    (1) Final Intermolecular Energy     =   -6.77 kcal/mol
USER        vdW + Hbond + desolv Energy     =   -6.77 kcal/mol
USER        Electrostatic Energy            =   +0.00 kcal/mol
USER    (2) Final Total Internal Energy     =   -0.75 kcal/mol
USER    (3) Torsional Free Energy           =   +2.68 kcal/mol
USER    (4) Unbound System's Energy         =   -0.29 kcal/mol
USER    
USER    
USER    NEWDPF move PE_ligand.pdbqt
USER    NEWDPF about 3.037000 5.209000 3.149000
USER    NEWDPF tran0 29.373589 41.633977 29.796033
USER    NEWDPF quaternion0 -0.067453 0.610129 -0.108945 -0.781872
USER    NEWDPF axisangle0 -0.108195 0.978651 -0.174748 -77.135472
USER    NEWDPF quat0 -0.108195 0.978651 -0.174748 -77.135472
USER    NEWDPF dihe0 -91.27 -179.62 55.02 76.24 -100.78 -126.73 27.04 31.31 -4.37 
USER  keepresnum = 1 
USER  
REMARK  9 active torsions:
REMARK  status: ('A' for Active; 'I' for Inactive)
REMARK    1  A    between atoms: C1_1  and  C2_2 
REMARK    2  A    between atoms: C1_1  and  C3_3 
REMARK    3  A    between atoms: C2_2  and  C4_4 
REMARK    4  A    between atoms: C3_3  and  C5_5 
REMARK    5  A    between atoms: C4_4  and  C6_6 
REMARK    6  A    between atoms: C5_5  and  C7_7 
REMARK    7  A    between atoms: C6_6  and  C8_8 
REMARK    8  A    between atoms: C7_7  and  C9_9 
REMARK    9  A    between atoms: C8_8  and  C10_10 
USER                              x       y       z     vdW  Elec       q    Type
USER                           _______ _______ _______ _____ _____    ______ ____
ROOT
ATOM      1  C1  MOL C   1      30.161  42.489  29.876 -0.70 -0.00    +0.000 C 
ENDROOT
BRANCH   1   2
ATOM      2  C2  MOL C   1      30.032  41.464  28.741 -0.68 -0.00    +0.000 C 
BRANCH   2   3
ATOM      3  C4  MOL C   1      28.624  40.799  28.889 -0.50 -0.00    +0.000 C 
BRANCH   3   4
ATOM      4  C6  MOL C   1      28.596  39.258  28.394 -0.53 -0.00    +0.000 C 
BRANCH   4   5
ATOM      5  C8  MOL C   1      27.350  38.464  28.717 -0.60 +0.00    -0.000 C 
BRANCH   5   6
ATOM      6  C10 MOL C   1      27.788  37.096  29.228 -0.63 +0.00    -0.005 C 
ATOM      7  C12 MOL C   1      29.009  36.490  28.604 -0.63 -0.00    +0.005 C 
ENDBRANCH   5   6
ENDBRANCH   4   5
ENDBRANCH   3   4
ENDBRANCH   2   3
ENDBRANCH   1   2
BRANCH   1   8
ATOM      8  C3  MOL C   1      30.504  41.630  31.159 -0.67 -0.00    +0.000 C 
BRANCH   8   9
ATOM      9  C5  MOL C   1      29.376  41.943  32.318 -0.48 -0.00    +0.000 C 
BRANCH   9  10
ATOM     10  C7  MOL C   1      29.453  41.067  33.624 -0.48 +0.00    -0.000 C 
BRANCH  10  11
ATOM     11  C9  MOL C   1      28.629  39.733  33.583 -0.38 +0.01    -0.005 C 
ATOM     12  C11 MOL C   1      28.234  39.482  32.086 -0.49 -0.00    +0.005 C 
ENDBRANCH  10  11
ENDBRANCH   9  10
ENDBRANCH   8   9
ENDBRANCH   1   8
TORSDOF 9
TER
ENDMDL
MODEL       45
USER    Run = 45
USER    DPF = lac3.dpf
USER  
USER    Estimated Free Energy of Binding    =   -4.46 kcal/mol  [=(1)+(2)+(3)-(4)]
USER    Estimated Inhibition Constant, Ki   =  538.13 uM (micromolar)  [Temperature = 298.15 K]
USER    
USER    (1) Final Intermolecular Energy     =   -6.91 kcal/mol
USER        vdW + Hbond + desolv Energy     =   -6.90 kcal/mol
USER        Electrostatic Energy            =   -0.00 kcal/mol
USER    (2) Final Total Internal Energy     =   -0.53 kcal/mol
USER    (3) Torsional Free Energy           =   +2.68 kcal/mol
USER    (4) Unbound System's Energy         =   -0.29 kcal/mol
USER    
USER    
USER    NEWDPF move PE_ligand.pdbqt
USER    NEWDPF about 3.037000 5.209000 3.149000
USER    NEWDPF tran0 26.939403 36.614899 30.131803
USER    NEWDPF quaternion0 -0.622846 0.232538 0.210479 -0.716720
USER    NEWDPF axisangle0 -0.893147 0.333454 0.301821 -88.431367
USER    NEWDPF quat0 -0.893147 0.333454 0.301821 -88.431367
USER    NEWDPF dihe0 143.95 -127.69 -166.19 -103.59 -130.28 13.99 163.26 7.91 175.16 
USER  keepresnum = 1 
USER  
REMARK  9 active torsions:
REMARK  status: ('A' for Active; 'I' for Inactive)
REMARK    1  A    between atoms: C1_1  and  C2_2 
REMARK    2  A    between atoms: C1_1  and  C3_3 
REMARK    3  A    between atoms: C2_2  and  C4_4 
REMARK    4  A    between atoms: C3_3  and  C5_5 
REMARK    5  A    between atoms: C4_4  and  C6_6 
REMARK    6  A    between atoms: C5_5  and  C7_7 
REMARK    7  A    between atoms: C6_6  and  C8_8 
REMARK    8  A    between atoms: C7_7  and  C9_9 
REMARK    9  A    between atoms: C8_8  and  C10_10 
USER                              x       y       z     vdW  Elec       q    Type
USER                           _______ _______ _______ _____ _____    ______ ____
ROOT
ATOM      1  C1  MOL C   1      26.387  37.484  29.588 -0.55 -0.00    +0.000 C 
ENDROOT
BRANCH   1   2
ATOM      2  C2  MOL C   1      27.834  37.027  29.354 -0.60 -0.00    +0.000 C 
BRANCH   2   3
ATOM      3  C4  MOL C   1      28.542  38.162  28.542 -0.54 -0.00    +0.000 C 
BRANCH   3   4
ATOM      4  C6  MOL C   1      27.508  39.256  27.949 -0.69 -0.00    +0.000 C 
BRANCH   4   5
ATOM      5  C8  MOL C   1      27.948  40.702  27.997 -0.66 +0.00    -0.000 C 
BRANCH   5   6
ATOM      6  C10 MOL C   1      29.364  40.740  28.561 -0.68 +0.00    -0.005 C 
ATOM      7  C12 MOL C   1      29.844  42.045  29.120 -0.73 -0.01    +0.005 C 
ENDBRANCH   5   6
ENDBRANCH   4   5
ENDBRANCH   3   4
ENDBRANCH   2   3
ENDBRANCH   1   2
BRANCH   1   8
ATOM      8  C3  MOL C   1      26.360  37.989  31.085 -0.49 -0.00    +0.000 C 
BRANCH   8   9
ATOM      9  C5  MOL C   1      24.874  37.668  31.721 -0.44 -0.00    +0.000 C 
BRANCH   9  10
ATOM     10  C7  MOL C   1      23.634  38.035  30.823 -0.52 +0.00    -0.000 C 
BRANCH  10  11
ATOM     11  C9  MOL C   1      23.130  36.888  29.880 -0.56 +0.00    -0.005 C 
ATOM     12  C11 MOL C   1      22.582  35.742  30.802 -0.44 -0.00    +0.005 C 
ENDBRANCH  10  11
ENDBRANCH   9  10
ENDBRANCH   8   9
ENDBRANCH   1   8
TORSDOF 9
TER
ENDMDL
MODEL       46
USER    Run = 46
USER    DPF = lac3.dpf
USER  
USER    Estimated Free Energy of Binding    =   -4.27 kcal/mol  [=(1)+(2)+(3)-(4)]
USER    Estimated Inhibition Constant, Ki   =  743.27 uM (micromolar)  [Temperature = 298.15 K]
USER    
USER    (1) Final Intermolecular Energy     =   -6.69 kcal/mol
USER        vdW + Hbond + desolv Energy     =   -6.69 kcal/mol
USER        Electrostatic Energy            =   -0.00 kcal/mol
USER    (2) Final Total Internal Energy     =   -0.55 kcal/mol
USER    (3) Torsional Free Energy           =   +2.68 kcal/mol
USER    (4) Unbound System's Energy         =   -0.29 kcal/mol
USER    
USER    
USER    NEWDPF move PE_ligand.pdbqt
USER    NEWDPF about 3.037000 5.209000 3.149000
USER    NEWDPF tran0 26.032549 38.432206 30.925981
USER    NEWDPF quaternion0 -0.905369 -0.190250 -0.041776 0.377314
USER    NEWDPF axisangle0 -0.977631 -0.205435 -0.045110 135.665131
USER    NEWDPF quat0 -0.977631 -0.205435 -0.045110 135.665131
USER    NEWDPF dihe0 130.63 110.66 -143.55 113.08 166.92 174.02 -78.71 -11.04 -149.65 
USER  keepresnum = 1 
USER  
REMARK  9 active torsions:
REMARK  status: ('A' for Active; 'I' for Inactive)
REMARK    1  A    between atoms: C1_1  and  C2_2 
REMARK    2  A    between atoms: C1_1  and  C3_3 
REMARK    3  A    between atoms: C2_2  and  C4_4 
REMARK    4  A    between atoms: C3_3  and  C5_5 
REMARK    5  A    between atoms: C4_4  and  C6_6 
REMARK    6  A    between atoms: C5_5  and  C7_7 
REMARK    7  A    between atoms: C6_6  and  C8_8 
REMARK    8  A    between atoms: C7_7  and  C9_9 
REMARK    9  A    between atoms: C8_8  and  C10_10 
USER                              x       y       z     vdW  Elec       q    Type
USER                           _______ _______ _______ _____ _____    ______ ____
ROOT
ATOM      1  C1  MOL C   1      26.373  37.321  31.006 -0.41 -0.00    +0.000 C 
ENDROOT
BRANCH   1   2
ATOM      2  C2  MOL C   1      27.259  38.530  30.675 -0.52 -0.00    +0.000 C 
BRANCH   2   3
ATOM      3  C4  MOL C   1      28.070  38.159  29.391 -0.62 -0.00    +0.000 C 
BRANCH   3   4
ATOM      4  C6  MOL C   1      27.537  38.915  28.063 -0.66 -0.00    +0.000 C 
BRANCH   4   5
ATOM      5  C8  MOL C   1      27.936  40.364  27.900 -0.69 +0.00    -0.000 C 
BRANCH   5   6
ATOM      6  C10 MOL C   1      29.234  40.579  28.671 -0.67 +0.00    -0.005 C 
ATOM      7  C12 MOL C   1      29.747  41.985  28.771 -0.75 -0.01    +0.005 C 
ENDBRANCH   5   6
ENDBRANCH   4   5
ENDBRANCH   3   4
ENDBRANCH   2   3
ENDBRANCH   1   2
BRANCH   1   8
ATOM      8  C3  MOL C   1      25.335  37.242  29.816 -0.47 -0.00    +0.000 C 
BRANCH   8   9
ATOM      9  C5  MOL C   1      24.113  36.226  30.252 -0.60 -0.00    +0.000 C 
BRANCH   9  10
ATOM     10  C7  MOL C   1      22.689  36.876  30.419 -0.54 +0.00    -0.000 C 
BRANCH  10  11
ATOM     11  C9  MOL C   1      22.631  38.124  31.367 -0.46 +0.00    -0.005 C 
ATOM     12  C11 MOL C   1      23.215  37.676  32.753 -0.29 -0.00    +0.005 C 
ENDBRANCH  10  11
ENDBRANCH   9  10
ENDBRANCH   8   9
ENDBRANCH   1   8
TORSDOF 9
TER
ENDMDL
MODEL       47
USER    Run = 47
USER    DPF = lac3.dpf
USER  
USER    Estimated Free Energy of Binding    =   -4.42 kcal/mol  [=(1)+(2)+(3)-(4)]
USER    Estimated Inhibition Constant, Ki   =  576.09 uM (micromolar)  [Temperature = 298.15 K]
USER    
USER    (1) Final Intermolecular Energy     =   -6.60 kcal/mol
USER        vdW + Hbond + desolv Energy     =   -6.60 kcal/mol
USER        Electrostatic Energy            =   -0.00 kcal/mol
USER    (2) Final Total Internal Energy     =   -0.79 kcal/mol
USER    (3) Torsional Free Energy           =   +2.68 kcal/mol
USER    (4) Unbound System's Energy         =   -0.29 kcal/mol
USER    
USER    
USER    NEWDPF move PE_ligand.pdbqt
USER    NEWDPF about 3.037000 5.209000 3.149000
USER    NEWDPF tran0 27.219447 38.416075 29.504833
USER    NEWDPF quaternion0 -0.472716 0.590762 -0.636516 -0.149625
USER    NEWDPF axisangle0 -0.478098 0.597488 -0.643763 -162.789573
USER    NEWDPF quat0 -0.478098 0.597488 -0.643763 -162.789573
USER    NEWDPF dihe0 -168.81 -180.00 -157.55 25.69 -178.25 -54.17 -2.74 67.00 20.82 
USER  keepresnum = 1 
USER  
REMARK  9 active torsions:
REMARK  status: ('A' for Active; 'I' for Inactive)
REMARK    1  A    between atoms: C1_1  and  C2_2 
REMARK    2  A    between atoms: C1_1  and  C3_3 
REMARK    3  A    between atoms: C2_2  and  C4_4 
REMARK    4  A    between atoms: C3_3  and  C5_5 
REMARK    5  A    between atoms: C4_4  and  C6_6 
REMARK    6  A    between atoms: C5_5  and  C7_7 
REMARK    7  A    between atoms: C6_6  and  C8_8 
REMARK    8  A    between atoms: C7_7  and  C9_9 
REMARK    9  A    between atoms: C8_8  and  C10_10 
USER                              x       y       z     vdW  Elec       q    Type
USER                           _______ _______ _______ _____ _____    ______ ____
ROOT
ATOM      1  C1  MOL C   1      27.543  37.809  28.565 -0.64 -0.00    +0.000 C 
ENDROOT
BRANCH   1   2
ATOM      2  C2  MOL C   1      26.860  37.256  29.824 -0.58 -0.00    +0.000 C 
BRANCH   2   3
ATOM      3  C4  MOL C   1      25.774  38.300  30.246 -0.51 -0.00    +0.000 C 
BRANCH   3   4
ATOM      4  C6  MOL C   1      24.988  37.886  31.599 -0.45 -0.00    +0.000 C 
BRANCH   4   5
ATOM      5  C8  MOL C   1      25.548  38.418  32.898 -0.34 +0.00    -0.000 C 
BRANCH   5   6
ATOM      6  C10 MOL C   1      26.589  39.480  32.559 -0.36 +0.00    -0.005 C 
ATOM      7  C12 MOL C   1      28.017  39.171  32.896 -0.41 -0.00    +0.005 C 
ENDBRANCH   5   6
ENDBRANCH   4   5
ENDBRANCH   3   4
ENDBRANCH   2   3
ENDBRANCH   1   2
BRANCH   1   8
ATOM      8  C3  MOL C   1      28.935  38.363  29.070 -0.57 -0.00    +0.000 C 
BRANCH   8   9
ATOM      9  C5  MOL C   1      28.735  39.927  29.549 -0.58 -0.00    +0.000 C 
BRANCH   9  10
ATOM     10  C7  MOL C   1      29.475  41.021  28.692 -0.70 +0.00    -0.000 C 
BRANCH  10  11
ATOM     11  C9  MOL C   1      30.122  42.189  29.515 -0.74 +0.01    -0.005 C 
ATOM     12  C11 MOL C   1      30.134  41.740  31.018 -0.72 -0.01    +0.005 C 
ENDBRANCH  10  11
ENDBRANCH   9  10
ENDBRANCH   8   9
ENDBRANCH   1   8
TORSDOF 9
TER
ENDMDL
MODEL       48
USER    Run = 48
USER    DPF = lac3.dpf
USER  
USER    Estimated Free Energy of Binding    =   -4.30 kcal/mol  [=(1)+(2)+(3)-(4)]
USER    Estimated Inhibition Constant, Ki   =  706.61 uM (micromolar)  [Temperature = 298.15 K]
USER    
USER    (1) Final Intermolecular Energy     =   -6.73 kcal/mol
USER        vdW + Hbond + desolv Energy     =   -6.73 kcal/mol
USER        Electrostatic Energy            =   -0.00 kcal/mol
USER    (2) Final Total Internal Energy     =   -0.54 kcal/mol
USER    (3) Torsional Free Energy           =   +2.68 kcal/mol
USER    (4) Unbound System's Energy         =   -0.29 kcal/mol
USER    
USER    
USER    NEWDPF move PE_ligand.pdbqt
USER    NEWDPF about 3.037000 5.209000 3.149000
USER    NEWDPF tran0 27.745524 38.469436 29.129524
USER    NEWDPF quaternion0 0.629607 -0.659326 -0.098270 0.399033
USER    NEWDPF axisangle0 0.686642 -0.719053 -0.107172 132.964540
USER    NEWDPF quat0 0.686642 -0.719053 -0.107172 132.964540
USER    NEWDPF dihe0 -16.26 -116.42 13.40 87.24 -169.40 -78.34 -168.95 82.01 19.07 
USER  keepresnum = 1 
USER  
REMARK  9 active torsions:
REMARK  status: ('A' for Active; 'I' for Inactive)
REMARK    1  A    between atoms: C1_1  and  C2_2 
REMARK    2  A    between atoms: C1_1  and  C3_3 
REMARK    3  A    between atoms: C2_2  and  C4_4 
REMARK    4  A    between atoms: C3_3  and  C5_5 
REMARK    5  A    between atoms: C4_4  and  C6_6 
REMARK    6  A    between atoms: C5_5  and  C7_7 
REMARK    7  A    between atoms: C6_6  and  C8_8 
REMARK    8  A    between atoms: C7_7  and  C9_9 
REMARK    9  A    between atoms: C8_8  and  C10_10 
USER                              x       y       z     vdW  Elec       q    Type
USER                           _______ _______ _______ _____ _____    ______ ____
ROOT
ATOM      1  C1  MOL C   1      27.242  39.196  28.371 -0.62 -0.00    +0.000 C 
ENDROOT
BRANCH   1   2
ATOM      2  C2  MOL C   1      27.900  37.846  28.051 -0.58 -0.00    +0.000 C 
BRANCH   2   3
ATOM      3  C4  MOL C   1      27.533  36.875  29.221 -0.61 -0.00    +0.000 C 
BRANCH   3   4
ATOM      4  C6  MOL C   1      26.310  37.416  30.134 -0.55 -0.00    +0.000 C 
BRANCH   4   5
ATOM      5  C8  MOL C   1      24.951  36.805  29.878 -0.55 +0.00    -0.000 C 
BRANCH   5   6
ATOM      6  C10 MOL C   1      23.948  37.500  30.792 -0.52 +0.00    -0.005 C 
ATOM      7  C12 MOL C   1      24.105  38.978  30.985 -0.47 -0.00    +0.005 C 
ENDBRANCH   5   6
ENDBRANCH   4   5
ENDBRANCH   3   4
ENDBRANCH   2   3
ENDBRANCH   1   2
BRANCH   1   8
ATOM      8  C3  MOL C   1      28.416  40.095  28.928 -0.62 -0.00    +0.000 C 
BRANCH   8   9
ATOM      9  C5  MOL C   1      28.803  39.575  30.443 -0.54 -0.00    +0.000 C 
BRANCH   9  10
ATOM     10  C7  MOL C   1      29.072  40.692  31.519 -0.42 +0.00    -0.000 C 
BRANCH  10  11
ATOM     11  C9  MOL C   1      30.482  41.373  31.437 -0.61 +0.01    -0.005 C 
ATOM     12  C11 MOL C   1      30.435  42.385  30.240 -0.65 -0.01    +0.005 C 
ENDBRANCH  10  11
ENDBRANCH   9  10
ENDBRANCH   8   9
ENDBRANCH   1   8
TORSDOF 9
TER
ENDMDL
MODEL       49
USER    Run = 49
USER    DPF = lac3.dpf
USER  
USER    Estimated Free Energy of Binding    =   -4.04 kcal/mol  [=(1)+(2)+(3)-(4)]
USER    Estimated Inhibition Constant, Ki   =    1.10 mM (millimolar)  [Temperature = 298.15 K]
USER    
USER    (1) Final Intermolecular Energy     =   -6.49 kcal/mol
USER        vdW + Hbond + desolv Energy     =   -6.49 kcal/mol
USER        Electrostatic Energy            =   -0.00 kcal/mol
USER    (2) Final Total Internal Energy     =   -0.52 kcal/mol
USER    (3) Torsional Free Energy           =   +2.68 kcal/mol
USER    (4) Unbound System's Energy         =   -0.29 kcal/mol
USER    
USER    
USER    NEWDPF move PE_ligand.pdbqt
USER    NEWDPF about 3.037000 5.209000 3.149000
USER    NEWDPF tran0 24.915854 38.052912 30.261665
USER    NEWDPF quaternion0 0.780028 0.291425 0.044734 -0.551930
USER    NEWDPF axisangle0 0.935408 0.349476 0.053645 -113.000911
USER    NEWDPF quat0 0.935408 0.349476 0.053645 -113.000911
USER    NEWDPF dihe0 165.47 83.52 96.00 92.57 68.27 149.30 51.76 9.40 -154.29 
USER  keepresnum = 1 
USER  
REMARK  9 active torsions:
REMARK  status: ('A' for Active; 'I' for Inactive)
REMARK    1  A    between atoms: C1_1  and  C2_2 
REMARK    2  A    between atoms: C1_1  and  C3_3 
REMARK    3  A    between atoms: C2_2  and  C4_4 
REMARK    4  A    between atoms: C3_3  and  C5_5 
REMARK    5  A    between atoms: C4_4  and  C6_6 
REMARK    6  A    between atoms: C5_5  and  C7_7 
REMARK    7  A    between atoms: C6_6  and  C8_8 
REMARK    8  A    between atoms: C7_7  and  C9_9 
REMARK    9  A    between atoms: C8_8  and  C10_10 
USER                              x       y       z     vdW  Elec       q    Type
USER                           _______ _______ _______ _____ _____    ______ ____
ROOT
ATOM      1  C1  MOL C   1      25.478  37.171  30.774 -0.52 -0.00    +0.000 C 
ENDROOT
BRANCH   1   2
ATOM      2  C2  MOL C   1      26.105  38.300  29.944 -0.51 -0.00    +0.000 C 
BRANCH   2   3
ATOM      3  C4  MOL C   1      27.132  37.632  28.971 -0.61 -0.00    +0.000 C 
BRANCH   3   4
ATOM      4  C6  MOL C   1      28.627  38.233  29.119 -0.63 -0.00    +0.000 C 
BRANCH   4   5
ATOM      5  C8  MOL C   1      28.749  39.605  29.742 -0.56 +0.00    -0.000 C 
BRANCH   5   6
ATOM      6  C10 MOL C   1      28.792  40.629  28.613 -0.69 +0.00    -0.005 C 
ATOM      7  C12 MOL C   1      29.761  41.765  28.755 -0.76 -0.01    +0.005 C 
ENDBRANCH   5   6
ENDBRANCH   4   5
ENDBRANCH   3   4
ENDBRANCH   2   3
ENDBRANCH   1   2
BRANCH   1   8
ATOM      8  C3  MOL C   1      24.543  36.396  29.761 -0.55 -0.00    +0.000 C 
BRANCH   8   9
ATOM      9  C5  MOL C   1      23.218  35.856  30.578 -0.52 -0.00    +0.000 C 
BRANCH   9  10
ATOM     10  C7  MOL C   1      21.984  36.832  30.633 -0.46 +0.00    -0.000 C 
BRANCH  10  11
ATOM     11  C9  MOL C   1      22.154  38.071  31.579 -0.39 +0.00    -0.005 C 
ATOM     12  C11 MOL C   1      21.801  37.593  33.030 -0.28 -0.00    +0.005 C 
ENDBRANCH  10  11
ENDBRANCH   9  10
ENDBRANCH   8   9
ENDBRANCH   1   8
TORSDOF 9
TER
ENDMDL
MODEL       50
USER    Run = 50
USER    DPF = lac3.dpf
USER  
USER    Estimated Free Energy of Binding    =   -4.63 kcal/mol  [=(1)+(2)+(3)-(4)]
USER    Estimated Inhibition Constant, Ki   =  405.72 uM (micromolar)  [Temperature = 298.15 K]
USER    
USER    (1) Final Intermolecular Energy     =   -6.90 kcal/mol
USER        vdW + Hbond + desolv Energy     =   -6.90 kcal/mol
USER        Electrostatic Energy            =   -0.00 kcal/mol
USER    (2) Final Total Internal Energy     =   -0.70 kcal/mol
USER    (3) Torsional Free Energy           =   +2.68 kcal/mol
USER    (4) Unbound System's Energy         =   -0.29 kcal/mol
USER    
USER    
USER    NEWDPF move PE_ligand.pdbqt
USER    NEWDPF about 3.037000 5.209000 3.149000
USER    NEWDPF tran0 27.108590 38.114046 29.072237
USER    NEWDPF quaternion0 0.399883 0.325291 -0.511836 -0.687243
USER    NEWDPF axisangle0 0.550479 0.447795 -0.704593 -93.175422
USER    NEWDPF quat0 0.550479 0.447795 -0.704593 -93.175422
USER    NEWDPF dihe0 151.95 68.26 53.42 -133.50 -166.34 -179.96 168.56 55.92 30.12 
USER  keepresnum = 1 
USER  
REMARK  9 active torsions:
REMARK  status: ('A' for Active; 'I' for Inactive)
REMARK    1  A    between atoms: C1_1  and  C2_2 
REMARK    2  A    between atoms: C1_1  and  C3_3 
REMARK    3  A    between atoms: C2_2  and  C4_4 
REMARK    4  A    between atoms: C3_3  and  C5_5 
REMARK    5  A    between atoms: C4_4  and  C6_6 
REMARK    6  A    between atoms: C5_5  and  C7_7 
REMARK    7  A    between atoms: C6_6  and  C8_8 
REMARK    8  A    between atoms: C7_7  and  C9_9 
REMARK    9  A    between atoms: C8_8  and  C10_10 
USER                              x       y       z     vdW  Elec       q    Type
USER                           _______ _______ _______ _____ _____    ______ ____
ROOT
ATOM      1  C1  MOL C   1      27.954  37.629  29.711 -0.63 -0.00    +0.000 C 
ENDROOT
BRANCH   1   2
ATOM      2  C2  MOL C   1      27.577  37.273  28.266 -0.60 -0.00    +0.000 C 
BRANCH   2   3
ATOM      3  C4  MOL C   1      27.503  38.619  27.472 -0.60 -0.00    +0.000 C 
BRANCH   3   4
ATOM      4  C6  MOL C   1      27.661  39.922  28.419 -0.63 -0.00    +0.000 C 
BRANCH   4   5
ATOM      5  C8  MOL C   1      28.994  40.635  28.377 -0.72 +0.00    -0.000 C 
BRANCH   5   6
ATOM      6  C10 MOL C   1      29.376  40.994  29.809 -0.53 +0.00    -0.005 C 
ATOM      7  C12 MOL C   1      30.257  42.192  30.003 -0.69 -0.01    +0.005 C 
ENDBRANCH   5   6
ENDBRANCH   4   5
ENDBRANCH   3   4
ENDBRANCH   2   3
ENDBRANCH   1   2
BRANCH   1   8
ATOM      8  C3  MOL C   1      26.673  37.266  30.564 -0.48 -0.00    +0.000 C 
BRANCH   8   9
ATOM      9  C5  MOL C   1      25.818  38.647  30.842 -0.42 -0.00    +0.000 C 
BRANCH   9  10
ATOM     10  C7  MOL C   1      24.339  38.674  30.303 -0.50 +0.00    -0.000 C 
BRANCH  10  11
ATOM     11  C9  MOL C   1      23.389  37.581  30.905 -0.51 +0.00    -0.005 C 
ATOM     12  C11 MOL C   1      23.328  36.404  29.869 -0.60 -0.00    +0.005 C 
ENDBRANCH  10  11
ENDBRANCH   9  10
ENDBRANCH   8   9
ENDBRANCH   1   8
TORSDOF 9
TER
ENDMDL
MODEL       51
USER    Run = 51
USER    DPF = lac3.dpf
USER  
USER    Estimated Free Energy of Binding    =   -4.31 kcal/mol  [=(1)+(2)+(3)-(4)]
USER    Estimated Inhibition Constant, Ki   =  690.70 uM (micromolar)  [Temperature = 298.15 K]
USER    
USER    (1) Final Intermolecular Energy     =   -6.77 kcal/mol
USER        vdW + Hbond + desolv Energy     =   -6.76 kcal/mol
USER        Electrostatic Energy            =   -0.00 kcal/mol
USER    (2) Final Total Internal Energy     =   -0.52 kcal/mol
USER    (3) Torsional Free Energy           =   +2.68 kcal/mol
USER    (4) Unbound System's Energy         =   -0.29 kcal/mol
USER    
USER    
USER    NEWDPF move PE_ligand.pdbqt
USER    NEWDPF about 3.037000 5.209000 3.149000
USER    NEWDPF tran0 26.383490 37.878874 29.682793
USER    NEWDPF quaternion0 -0.028502 0.242963 -0.125626 -0.961444
USER    NEWDPF axisangle0 -0.103643 0.883501 -0.456820 -31.924026
USER    NEWDPF quat0 -0.103643 0.883501 -0.456820 -31.924026
USER    NEWDPF dihe0 149.34 59.12 113.46 -162.72 180.00 162.54 -164.97 11.65 76.82 
USER  keepresnum = 1 
USER  
REMARK  9 active torsions:
REMARK  status: ('A' for Active; 'I' for Inactive)
REMARK    1  A    between atoms: C1_1  and  C2_2 
REMARK    2  A    between atoms: C1_1  and  C3_3 
REMARK    3  A    between atoms: C2_2  and  C4_4 
REMARK    4  A    between atoms: C3_3  and  C5_5 
REMARK    5  A    between atoms: C4_4  and  C6_6 
REMARK    6  A    between atoms: C5_5  and  C7_7 
REMARK    7  A    between atoms: C6_6  and  C8_8 
REMARK    8  A    between atoms: C7_7  and  C9_9 
REMARK    9  A    between atoms: C8_8  and  C10_10 
USER                              x       y       z     vdW  Elec       q    Type
USER                           _______ _______ _______ _____ _____    ______ ____
ROOT
ATOM      1  C1  MOL C   1      26.851  38.750  30.299 -0.47 -0.00    +0.000 C 
ENDROOT
BRANCH   1   2
ATOM      2  C2  MOL C   1      27.607  37.714  29.456 -0.62 -0.00    +0.000 C 
BRANCH   2   3
ATOM      3  C4  MOL C   1      27.874  38.371  28.063 -0.62 -0.00    +0.000 C 
BRANCH   3   4
ATOM      4  C6  MOL C   1      27.768  39.986  28.094 -0.70 -0.00    +0.000 C 
BRANCH   4   5
ATOM      5  C8  MOL C   1      29.044  40.744  28.384 -0.71 +0.00    -0.000 C 
BRANCH   5   6
ATOM      6  C10 MOL C   1      29.308  40.658  29.883 -0.48 +0.00    -0.005 C 
ATOM      7  C12 MOL C   1      30.133  41.748  30.498 -0.71 -0.01    +0.005 C 
ENDBRANCH   5   6
ENDBRANCH   4   5
ENDBRANCH   3   4
ENDBRANCH   2   3
ENDBRANCH   1   2
BRANCH   1   8
ATOM      8  C3  MOL C   1      26.145  37.908  31.437 -0.44 -0.00    +0.000 C 
BRANCH   8   9
ATOM      9  C5  MOL C   1      24.670  38.574  31.745 -0.42 -0.00    +0.000 C 
BRANCH   9  10
ATOM     10  C7  MOL C   1      23.424  37.822  31.143 -0.49 +0.00    -0.000 C 
BRANCH  10  11
ATOM     11  C9  MOL C   1      23.574  36.265  31.029 -0.52 +0.00    -0.005 C 
ATOM     12  C11 MOL C   1      23.750  35.931  29.507 -0.57 -0.00    +0.005 C 
ENDBRANCH  10  11
ENDBRANCH   9  10
ENDBRANCH   8   9
ENDBRANCH   1   8
TORSDOF 9
TER
ENDMDL
MODEL       52
USER    Run = 52
USER    DPF = lac3.dpf
USER  
USER    Estimated Free Energy of Binding    =   -4.54 kcal/mol  [=(1)+(2)+(3)-(4)]
USER    Estimated Inhibition Constant, Ki   =  470.00 uM (micromolar)  [Temperature = 298.15 K]
USER    
USER    (1) Final Intermolecular Energy     =   -6.74 kcal/mol
USER        vdW + Hbond + desolv Energy     =   -6.73 kcal/mol
USER        Electrostatic Energy            =   -0.00 kcal/mol
USER    (2) Final Total Internal Energy     =   -0.78 kcal/mol
USER    (3) Torsional Free Energy           =   +2.68 kcal/mol
USER    (4) Unbound System's Energy         =   -0.29 kcal/mol
USER    
USER    
USER    NEWDPF move PE_ligand.pdbqt
USER    NEWDPF about 3.037000 5.209000 3.149000
USER    NEWDPF tran0 27.113459 38.381297 30.709640
USER    NEWDPF quaternion0 -0.082635 0.298594 -0.291542 -0.904995
USER    NEWDPF axisangle0 -0.194242 0.701878 -0.685301 -50.354704
USER    NEWDPF quat0 -0.194242 0.701878 -0.685301 -50.354704
USER    NEWDPF dihe0 139.24 -41.25 157.66 70.47 -159.08 152.95 142.16 51.65 71.59 
USER  keepresnum = 1 
USER  
REMARK  9 active torsions:
REMARK  status: ('A' for Active; 'I' for Inactive)
REMARK    1  A    between atoms: C1_1  and  C2_2 
REMARK    2  A    between atoms: C1_1  and  C3_3 
REMARK    3  A    between atoms: C2_2  and  C4_4 
REMARK    4  A    between atoms: C3_3  and  C5_5 
REMARK    5  A    between atoms: C4_4  and  C6_6 
REMARK    6  A    between atoms: C5_5  and  C7_7 
REMARK    7  A    between atoms: C6_6  and  C8_8 
REMARK    8  A    between atoms: C7_7  and  C9_9 
REMARK    9  A    between atoms: C8_8  and  C10_10 
USER                              x       y       z     vdW  Elec       q    Type
USER                           _______ _______ _______ _____ _____    ______ ____
ROOT
ATOM      1  C1  MOL C   1      27.909  39.142  31.093 -0.52 -0.00    +0.000 C 
ENDROOT
BRANCH   1   2
ATOM      2  C2  MOL C   1      28.181  37.805  30.387 -0.53 -0.00    +0.000 C 
BRANCH   2   3
ATOM      3  C4  MOL C   1      28.264  38.111  28.855 -0.63 -0.00    +0.000 C 
BRANCH   3   4
ATOM      4  C6  MOL C   1      27.283  39.313  28.395 -0.63 -0.00    +0.000 C 
BRANCH   4   5
ATOM      5  C8  MOL C   1      27.946  40.597  27.950 -0.67 +0.00    -0.000 C 
BRANCH   5   6
ATOM      6  C10 MOL C   1      29.223  40.770  28.766 -0.69 +0.00    -0.005 C 
ATOM      7  C12 MOL C   1      29.869  42.123  28.749 -0.74 -0.01    +0.005 C 
ENDBRANCH   5   6
ENDBRANCH   4   5
ENDBRANCH   3   4
ENDBRANCH   2   3
ENDBRANCH   1   2
BRANCH   1   8
ATOM      8  C3  MOL C   1      27.183  38.746  32.441 -0.40 -0.00    +0.000 C 
BRANCH   8   9
ATOM      9  C5  MOL C   1      25.573  39.056  32.281 -0.37 -0.00    +0.000 C 
BRANCH   9  10
ATOM     10  C7  MOL C   1      24.674  37.856  31.800 -0.42 +0.00    -0.000 C 
BRANCH  10  11
ATOM     11  C9  MOL C   1      24.397  37.806  30.257 -0.52 +0.00    -0.005 C 
ATOM     12  C11 MOL C   1      24.161  36.302  29.882 -0.62 -0.00    +0.005 C 
ENDBRANCH  10  11
ENDBRANCH   9  10
ENDBRANCH   8   9
ENDBRANCH   1   8
TORSDOF 9
TER
ENDMDL
MODEL       53
USER    Run = 53
USER    DPF = lac3.dpf
USER  
USER    Estimated Free Energy of Binding    =   -4.66 kcal/mol  [=(1)+(2)+(3)-(4)]
USER    Estimated Inhibition Constant, Ki   =  386.48 uM (micromolar)  [Temperature = 298.15 K]
USER    
USER    (1) Final Intermolecular Energy     =   -6.97 kcal/mol
USER        vdW + Hbond + desolv Energy     =   -6.97 kcal/mol
USER        Electrostatic Energy            =   +0.00 kcal/mol
USER    (2) Final Total Internal Energy     =   -0.65 kcal/mol
USER    (3) Torsional Free Energy           =   +2.68 kcal/mol
USER    (4) Unbound System's Energy         =   -0.29 kcal/mol
USER    
USER    
USER    NEWDPF move PE_ligand.pdbqt
USER    NEWDPF about 3.037000 5.209000 3.149000
USER    NEWDPF tran0 28.093335 39.100911 28.791036
USER    NEWDPF quaternion0 0.539428 -0.762102 -0.174298 0.312789
USER    NEWDPF axisangle0 0.567925 -0.802363 -0.183506 143.545170
USER    NEWDPF quat0 0.567925 -0.802363 -0.183506 143.545170
USER    NEWDPF dihe0 -179.98 179.37 -92.59 -49.64 179.95 -81.75 180.00 55.93 22.64 
USER  keepresnum = 1 
USER  
REMARK  9 active torsions:
REMARK  status: ('A' for Active; 'I' for Inactive)
REMARK    1  A    between atoms: C1_1  and  C2_2 
REMARK    2  A    between atoms: C1_1  and  C3_3 
REMARK    3  A    between atoms: C2_2  and  C4_4 
REMARK    4  A    between atoms: C3_3  and  C5_5 
REMARK    5  A    between atoms: C4_4  and  C6_6 
REMARK    6  A    between atoms: C5_5  and  C7_7 
REMARK    7  A    between atoms: C6_6  and  C8_8 
REMARK    8  A    between atoms: C7_7  and  C9_9 
REMARK    9  A    between atoms: C8_8  and  C10_10 
USER                              x       y       z     vdW  Elec       q    Type
USER                           _______ _______ _______ _____ _____    ______ ____
ROOT
ATOM      1  C1  MOL C   1      27.520  39.950  28.236 -0.65 -0.00    +0.000 C 
ENDROOT
BRANCH   1   2
ATOM      2  C2  MOL C   1      27.805  38.537  27.707 -0.55 -0.00    +0.000 C 
BRANCH   2   3
ATOM      3  C4  MOL C   1      27.553  37.550  28.894 -0.64 -0.00    +0.000 C 
BRANCH   3   4
ATOM      4  C6  MOL C   1      26.977  38.284  30.217 -0.54 -0.00    +0.000 C 
BRANCH   4   5
ATOM      5  C8  MOL C   1      25.473  38.376  30.341 -0.50 +0.00    -0.000 C 
BRANCH   5   6
ATOM      6  C10 MOL C   1      24.954  37.006  30.764 -0.54 +0.00    -0.005 C 
ATOM      7  C12 MOL C   1      23.912  36.369  29.894 -0.62 -0.00    +0.005 C 
ENDBRANCH   5   6
ENDBRANCH   4   5
ENDBRANCH   3   4
ENDBRANCH   2   3
ENDBRANCH   1   2
BRANCH   1   8
ATOM      8  C3  MOL C   1      28.946  40.607  28.420 -0.71 -0.00    +0.000 C 
BRANCH   8   9
ATOM      9  C5  MOL C   1      29.372  40.503  30.007 -0.45 -0.00    +0.000 C 
BRANCH   9  10
ATOM     10  C7  MOL C   1      30.125  41.746  30.613 -0.72 +0.00    -0.000 C 
BRANCH  10  11
ATOM     11  C9  MOL C   1      29.787  42.067  32.110 -0.55 +0.01    -0.005 C 
ATOM     12  C11 MOL C   1      29.015  40.828  32.683 -0.49 -0.01    +0.005 C 
ENDBRANCH  10  11
ENDBRANCH   9  10
ENDBRANCH   8   9
ENDBRANCH   1   8
TORSDOF 9
TER
ENDMDL
MODEL       54
USER    Run = 54
USER    DPF = lac3.dpf
USER  
USER    Estimated Free Energy of Binding    =   -4.93 kcal/mol  [=(1)+(2)+(3)-(4)]
USER    Estimated Inhibition Constant, Ki   =  241.49 uM (micromolar)  [Temperature = 298.15 K]
USER    
USER    (1) Final Intermolecular Energy     =   -7.44 kcal/mol
USER        vdW + Hbond + desolv Energy     =   -7.45 kcal/mol
USER        Electrostatic Energy            =   +0.00 kcal/mol
USER    (2) Final Total Internal Energy     =   -0.46 kcal/mol
USER    (3) Torsional Free Energy           =   +2.68 kcal/mol
USER    (4) Unbound System's Energy         =   -0.29 kcal/mol
USER    
USER    
USER    NEWDPF move PE_ligand.pdbqt
USER    NEWDPF about 3.037000 5.209000 3.149000
USER    NEWDPF tran0 27.548920 38.941294 29.170454
USER    NEWDPF quaternion0 -0.470864 0.693154 -0.154264 -0.523476
USER    NEWDPF axisangle0 -0.552631 0.813522 -0.181052 -116.868604
USER    NEWDPF quat0 -0.552631 0.813522 -0.181052 -116.868604
USER    NEWDPF dihe0 -179.99 79.62 -85.19 -134.95 152.70 -168.03 -142.47 -70.41 -31.94 
USER  keepresnum = 1 
USER  
REMARK  9 active torsions:
REMARK  status: ('A' for Active; 'I' for Inactive)
REMARK    1  A    between atoms: C1_1  and  C2_2 
REMARK    2  A    between atoms: C1_1  and  C3_3 
REMARK    3  A    between atoms: C2_2  and  C4_4 
REMARK    4  A    between atoms: C3_3  and  C5_5 
REMARK    5  A    between atoms: C4_4  and  C6_6 
REMARK    6  A    between atoms: C5_5  and  C7_7 
REMARK    7  A    between atoms: C6_6  and  C8_8 
REMARK    8  A    between atoms: C7_7  and  C9_9 
REMARK    9  A    between atoms: C8_8  and  C10_10 
USER                              x       y       z     vdW  Elec       q    Type
USER                           _______ _______ _______ _____ _____    ______ ____
ROOT
ATOM      1  C1  MOL C   1      27.780  39.688  28.307 -0.69 -0.00    +0.000 C 
ENDROOT
BRANCH   1   2
ATOM      2  C2  MOL C   1      27.800  38.155  28.225 -0.63 -0.00    +0.000 C 
BRANCH   2   3
ATOM      3  C4  MOL C   1      27.742  37.622  29.694 -0.62 -0.00    +0.000 C 
BRANCH   3   4
ATOM      4  C6  MOL C   1      26.692  38.433  30.621 -0.50 -0.00    +0.000 C 
BRANCH   4   5
ATOM      5  C8  MOL C   1      25.235  38.357  30.223 -0.50 +0.00    -0.000 C 
BRANCH   5   6
ATOM      6  C10 MOL C   1      24.656  37.077  30.816 -0.54 +0.00    -0.005 C 
ATOM      7  C12 MOL C   1      24.003  36.116  29.868 -0.63 -0.00    +0.005 C 
ENDBRANCH   5   6
ENDBRANCH   4   5
ENDBRANCH   3   4
ENDBRANCH   2   3
ENDBRANCH   1   2
BRANCH   1   8
ATOM      8  C3  MOL C   1      28.916  40.052  29.344 -0.60 -0.00    +0.000 C 
BRANCH   8   9
ATOM      9  C5  MOL C   1      29.810  41.293  28.731 -0.69 -0.00    +0.000 C 
BRANCH   9  10
ATOM     10  C7  MOL C   1      30.100  42.495  29.705 -0.70 +0.00    -0.000 C 
BRANCH  10  11
ATOM     11  C9  MOL C   1      30.876  42.121  31.015 -0.72 +0.01    -0.005 C 
ATOM     12  C11 MOL C   1      29.805  41.681  32.074 -0.64 -0.01    +0.005 C 
ENDBRANCH  10  11
ENDBRANCH   9  10
ENDBRANCH   8   9
ENDBRANCH   1   8
TORSDOF 9
TER
ENDMDL
MODEL       55
USER    Run = 55
USER    DPF = lac3.dpf
USER  
USER    Estimated Free Energy of Binding    =   -4.12 kcal/mol  [=(1)+(2)+(3)-(4)]
USER    Estimated Inhibition Constant, Ki   =  952.36 uM (micromolar)  [Temperature = 298.15 K]
USER    
USER    (1) Final Intermolecular Energy     =   -6.37 kcal/mol
USER        vdW + Hbond + desolv Energy     =   -6.37 kcal/mol
USER        Electrostatic Energy            =   -0.00 kcal/mol
USER    (2) Final Total Internal Energy     =   -0.72 kcal/mol
USER    (3) Torsional Free Energy           =   +2.68 kcal/mol
USER    (4) Unbound System's Energy         =   -0.29 kcal/mol
USER    
USER    
USER    NEWDPF move PE_ligand.pdbqt
USER    NEWDPF about 3.037000 5.209000 3.149000
USER    NEWDPF tran0 27.131230 38.805526 31.548003
USER    NEWDPF quaternion0 -0.513692 -0.440381 -0.735920 -0.024659
USER    NEWDPF axisangle0 -0.513848 -0.440515 -0.736144 -177.173999
USER    NEWDPF quat0 -0.513848 -0.440515 -0.736144 -177.173999
USER    NEWDPF dihe0 33.09 -148.82 -108.35 -163.51 165.85 171.54 56.91 21.61 38.04 
USER  keepresnum = 1 
USER  
REMARK  9 active torsions:
REMARK  status: ('A' for Active; 'I' for Inactive)
REMARK    1  A    between atoms: C1_1  and  C2_2 
REMARK    2  A    between atoms: C1_1  and  C3_3 
REMARK    3  A    between atoms: C2_2  and  C4_4 
REMARK    4  A    between atoms: C3_3  and  C5_5 
REMARK    5  A    between atoms: C4_4  and  C6_6 
REMARK    6  A    between atoms: C5_5  and  C7_7 
REMARK    7  A    between atoms: C6_6  and  C8_8 
REMARK    8  A    between atoms: C7_7  and  C9_9 
REMARK    9  A    between atoms: C8_8  and  C10_10 
USER                              x       y       z     vdW  Elec       q    Type
USER                           _______ _______ _______ _____ _____    ______ ____
ROOT
ATOM      1  C1  MOL C   1      28.169  38.736  32.073 -0.46 -0.00    +0.000 C 
ENDROOT
BRANCH   1   2
ATOM      2  C2  MOL C   1      26.924  39.468  32.594 -0.38 -0.00    +0.000 C 
BRANCH   2   3
ATOM      3  C4  MOL C   1      25.778  38.407  32.685 -0.36 -0.00    +0.000 C 
BRANCH   3   4
ATOM      4  C6  MOL C   1      24.518  38.751  31.730 -0.43 -0.00    +0.000 C 
BRANCH   4   5
ATOM      5  C8  MOL C   1      24.690  38.477  30.253 -0.50 +0.00    -0.000 C 
BRANCH   5   6
ATOM      6  C10 MOL C   1      24.953  36.985  30.083 -0.55 +0.00    -0.005 C 
ATOM      7  C12 MOL C   1      23.759  36.092  29.924 -0.63 -0.00    +0.005 C 
ENDBRANCH   5   6
ENDBRANCH   4   5
ENDBRANCH   3   4
ENDBRANCH   2   3
ENDBRANCH   1   2
BRANCH   1   8
ATOM      8  C3  MOL C   1      28.549  39.486  30.735 -0.55 -0.00    +0.000 C 
BRANCH   8   9
ATOM      9  C5  MOL C   1      28.843  38.361  29.568 -0.56 -0.00    +0.000 C 
BRANCH   9  10
ATOM     10  C7  MOL C   1      27.809  38.296  28.382 -0.64 +0.00    -0.000 C 
BRANCH  10  11
ATOM     11  C9  MOL C   1      27.125  39.659  28.017 -0.64 +0.00    -0.005 C 
ATOM     12  C11 MOL C   1      28.253  40.749  27.995 -0.68 -0.00    +0.005 C 
ENDBRANCH  10  11
ENDBRANCH   9  10
ENDBRANCH   8   9
ENDBRANCH   1   8
TORSDOF 9
TER
ENDMDL
MODEL       56
USER    Run = 56
USER    DPF = lac3.dpf
USER  
USER    Estimated Free Energy of Binding    =   -4.72 kcal/mol  [=(1)+(2)+(3)-(4)]
USER    Estimated Inhibition Constant, Ki   =  344.91 uM (micromolar)  [Temperature = 298.15 K]
USER    
USER    (1) Final Intermolecular Energy     =   -7.18 kcal/mol
USER        vdW + Hbond + desolv Energy     =   -7.17 kcal/mol
USER        Electrostatic Energy            =   -0.00 kcal/mol
USER    (2) Final Total Internal Energy     =   -0.52 kcal/mol
USER    (3) Torsional Free Energy           =   +2.68 kcal/mol
USER    (4) Unbound System's Energy         =   -0.29 kcal/mol
USER    
USER    
USER    NEWDPF move PE_ligand.pdbqt
USER    NEWDPF about 3.037000 5.209000 3.149000
USER    NEWDPF tran0 27.147684 37.601478 28.256976
USER    NEWDPF quaternion0 -0.352564 -0.404163 -0.721041 -0.438693
USER    NEWDPF axisangle0 -0.392332 -0.449751 -0.802371 -127.958904
USER    NEWDPF quat0 -0.392332 -0.449751 -0.802371 -127.958904
USER    NEWDPF dihe0 -70.64 -5.52 -64.15 -9.67 40.22 12.81 -29.30 -66.65 -174.43 
USER  keepresnum = 1 
USER  
REMARK  9 active torsions:
REMARK  status: ('A' for Active; 'I' for Inactive)
REMARK    1  A    between atoms: C1_1  and  C2_2 
REMARK    2  A    between atoms: C1_1  and  C3_3 
REMARK    3  A    between atoms: C2_2  and  C4_4 
REMARK    4  A    between atoms: C3_3  and  C5_5 
REMARK    5  A    between atoms: C4_4  and  C6_6 
REMARK    6  A    between atoms: C5_5  and  C7_7 
REMARK    7  A    between atoms: C6_6  and  C8_8 
REMARK    8  A    between atoms: C7_7  and  C9_9 
REMARK    9  A    between atoms: C8_8  and  C10_10 
USER                              x       y       z     vdW  Elec       q    Type
USER                           _______ _______ _______ _____ _____    ______ ____
ROOT
ATOM      1  C1  MOL C   1      28.109  38.064  28.725 -0.63 -0.00    +0.000 C 
ENDROOT
BRANCH   1   2
ATOM      2  C2  MOL C   1      26.904  37.488  29.483 -0.60 -0.00    +0.000 C 
BRANCH   2   3
ATOM      3  C4  MOL C   1      26.878  38.182  30.885 -0.51 -0.00    +0.000 C 
BRANCH   3   4
ATOM      4  C6  MOL C   1      25.404  38.202  31.553 -0.45 -0.00    +0.000 C 
BRANCH   4   5
ATOM      5  C8  MOL C   1      24.269  38.688  30.680 -0.52 +0.00    -0.000 C 
BRANCH   5   6
ATOM      6  C10 MOL C   1      23.457  37.472  30.250 -0.55 +0.00    -0.005 C 
ATOM      7  C12 MOL C   1      24.087  36.124  30.441 -0.58 -0.00    +0.005 C 
ENDBRANCH   5   6
ENDBRANCH   4   5
ENDBRANCH   3   4
ENDBRANCH   2   3
ENDBRANCH   1   2
BRANCH   1   8
ATOM      8  C3  MOL C   1      27.530  39.298  27.924 -0.69 -0.00    +0.000 C 
BRANCH   8   9
ATOM      9  C5  MOL C   1      28.608  40.540  28.023 -0.66 -0.00    +0.000 C 
BRANCH   9  10
ATOM     10  C7  MOL C   1      29.187  40.852  29.453 -0.53 +0.00    -0.000 C 
BRANCH  10  11
ATOM     11  C9  MOL C   1      30.120  42.111  29.536 -0.74 +0.01    -0.005 C 
ATOM     12  C11 MOL C   1      30.746  42.125  30.974 -0.72 -0.01    +0.005 C 
ENDBRANCH  10  11
ENDBRANCH   9  10
ENDBRANCH   8   9
ENDBRANCH   1   8
TORSDOF 9
TER
ENDMDL
MODEL       57
USER    Run = 57
USER    DPF = lac3.dpf
USER  
USER    Estimated Free Energy of Binding    =   -4.16 kcal/mol  [=(1)+(2)+(3)-(4)]
USER    Estimated Inhibition Constant, Ki   =  895.36 uM (micromolar)  [Temperature = 298.15 K]
USER    
USER    (1) Final Intermolecular Energy     =   -6.27 kcal/mol
USER        vdW + Hbond + desolv Energy     =   -6.27 kcal/mol
USER        Electrostatic Energy            =   -0.00 kcal/mol
USER    (2) Final Total Internal Energy     =   -0.86 kcal/mol
USER    (3) Torsional Free Energy           =   +2.68 kcal/mol
USER    (4) Unbound System's Energy         =   -0.29 kcal/mol
USER    
USER    
USER    NEWDPF move PE_ligand.pdbqt
USER    NEWDPF about 3.037000 5.209000 3.149000
USER    NEWDPF tran0 28.090097 38.855678 31.023041
USER    NEWDPF quaternion0 -0.393623 -0.594504 -0.634871 -0.297598
USER    NEWDPF axisangle0 -0.412304 -0.622719 -0.665001 -145.373251
USER    NEWDPF quat0 -0.412304 -0.622719 -0.665001 -145.373251
USER    NEWDPF dihe0 -132.53 136.00 -63.34 64.03 -123.83 173.92 13.37 39.85 -27.58 
USER  keepresnum = 1 
USER  
REMARK  9 active torsions:
REMARK  status: ('A' for Active; 'I' for Inactive)
REMARK    1  A    between atoms: C1_1  and  C2_2 
REMARK    2  A    between atoms: C1_1  and  C3_3 
REMARK    3  A    between atoms: C2_2  and  C4_4 
REMARK    4  A    between atoms: C3_3  and  C5_5 
REMARK    5  A    between atoms: C4_4  and  C6_6 
REMARK    6  A    between atoms: C5_5  and  C7_7 
REMARK    7  A    between atoms: C6_6  and  C8_8 
REMARK    8  A    between atoms: C7_7  and  C9_9 
REMARK    9  A    between atoms: C8_8  and  C10_10 
USER                              x       y       z     vdW  Elec       q    Type
USER                           _______ _______ _______ _____ _____    ______ ____
ROOT
ATOM      1  C1  MOL C   1      28.999  39.495  31.374 -0.49 -0.00    +0.000 C 
ENDROOT
BRANCH   1   2
ATOM      2  C2  MOL C   1      27.660  39.324  32.105 -0.45 -0.00    +0.000 C 
BRANCH   2   3
ATOM      3  C4  MOL C   1      26.709  38.548  31.135 -0.47 -0.00    +0.000 C 
BRANCH   3   4
ATOM      4  C6  MOL C   1      25.147  38.681  31.538 -0.43 -0.00    +0.000 C 
BRANCH   4   5
ATOM      5  C8  MOL C   1      24.152  38.692  30.400 -0.52 +0.00    -0.000 C 
BRANCH   5   6
ATOM      6  C10 MOL C   1      23.447  37.340  30.383 -0.55 +0.00    -0.005 C 
ATOM      7  C12 MOL C   1      24.206  36.180  29.811 -0.61 -0.00    +0.005 C 
ENDBRANCH   5   6
ENDBRANCH   4   5
ENDBRANCH   3   4
ENDBRANCH   2   3
ENDBRANCH   1   2
BRANCH   1   8
ATOM      8  C3  MOL C   1      28.627  40.206  30.012 -0.40 -0.00    +0.000 C 
BRANCH   8   9
ATOM      9  C5  MOL C   1      28.970  39.177  28.771 -0.53 -0.00    +0.000 C 
BRANCH   9  10
ATOM     10  C7  MOL C   1      27.742  38.656  27.935 -0.63 +0.00    -0.000 C 
BRANCH  10  11
ATOM     11  C9  MOL C   1      27.270  37.200  28.279 -0.58 +0.00    -0.005 C 
ATOM     12  C11 MOL C   1      28.538  36.404  28.745 -0.62 -0.00    +0.005 C 
ENDBRANCH  10  11
ENDBRANCH   9  10
ENDBRANCH   8   9
ENDBRANCH   1   8
TORSDOF 9
TER
ENDMDL
MODEL       58
USER    Run = 58
USER    DPF = lac3.dpf
USER  
USER    Estimated Free Energy of Binding    =   -4.78 kcal/mol  [=(1)+(2)+(3)-(4)]
USER    Estimated Inhibition Constant, Ki   =  312.72 uM (micromolar)  [Temperature = 298.15 K]
USER    
USER    (1) Final Intermolecular Energy     =   -7.15 kcal/mol
USER        vdW + Hbond + desolv Energy     =   -7.16 kcal/mol
USER        Electrostatic Energy            =   +0.00 kcal/mol
USER    (2) Final Total Internal Energy     =   -0.60 kcal/mol
USER    (3) Torsional Free Energy           =   +2.68 kcal/mol
USER    (4) Unbound System's Energy         =   -0.29 kcal/mol
USER    
USER    
USER    NEWDPF move PE_ligand.pdbqt
USER    NEWDPF about 3.037000 5.209000 3.149000
USER    NEWDPF tran0 28.885756 38.503781 28.008083
USER    NEWDPF quaternion0 0.209792 -0.477901 -0.761593 -0.384153
USER    NEWDPF axisangle0 0.227227 -0.517619 -0.824887 -134.817610
USER    NEWDPF quat0 0.227227 -0.517619 -0.824887 -134.817610
USER    NEWDPF dihe0 179.95 60.36 -172.93 -92.39 -107.37 -34.86 -147.89 5.02 163.86 
USER  keepresnum = 1 
USER  
REMARK  9 active torsions:
REMARK  status: ('A' for Active; 'I' for Inactive)
REMARK    1  A    between atoms: C1_1  and  C2_2 
REMARK    2  A    between atoms: C1_1  and  C3_3 
REMARK    3  A    between atoms: C2_2  and  C4_4 
REMARK    4  A    between atoms: C3_3  and  C5_5 
REMARK    5  A    between atoms: C4_4  and  C6_6 
REMARK    6  A    between atoms: C5_5  and  C7_7 
REMARK    7  A    between atoms: C6_6  and  C8_8 
REMARK    8  A    between atoms: C7_7  and  C9_9 
REMARK    9  A    between atoms: C8_8  and  C10_10 
USER                              x       y       z     vdW  Elec       q    Type
USER                           _______ _______ _______ _____ _____    ______ ____
ROOT
ATOM      1  C1  MOL C   1      28.769  38.802  29.128 -0.60 -0.00    +0.000 C 
ENDROOT
BRANCH   1   2
ATOM      2  C2  MOL C   1      27.947  37.752  28.367 -0.64 -0.00    +0.000 C 
BRANCH   2   3
ATOM      3  C4  MOL C   1      26.863  37.219  29.361 -0.60 -0.00    +0.000 C 
BRANCH   3   4
ATOM      4  C6  MOL C   1      26.280  38.369  30.339 -0.51 -0.00    +0.000 C 
BRANCH   4   5
ATOM      5  C8  MOL C   1      24.981  38.061  31.049 -0.49 +0.00    -0.000 C 
BRANCH   5   6
ATOM      6  C10 MOL C   1      24.491  36.703  30.558 -0.57 +0.00    -0.005 C 
ATOM      7  C12 MOL C   1      23.109  36.642  29.979 -0.57 -0.00    +0.005 C 
ENDBRANCH   5   6
ENDBRANCH   4   5
ENDBRANCH   3   4
ENDBRANCH   2   3
ENDBRANCH   1   2
BRANCH   1   8
ATOM      8  C3  MOL C   1      28.442  40.171  28.407 -0.70 -0.00    +0.000 C 
BRANCH   8   9
ATOM      9  C5  MOL C   1      29.755  41.158  28.534 -0.65 -0.00    +0.000 C 
BRANCH   9  10
ATOM     10  C7  MOL C   1      29.756  42.170  29.740 -0.56 +0.00    -0.000 C 
BRANCH  10  11
ATOM     11  C9  MOL C   1      30.653  41.757  30.958 -0.67 +0.01    -0.005 C 
ATOM     12  C11 MOL C   1      29.688  41.288  32.102 -0.61 -0.01    +0.005 C 
ENDBRANCH  10  11
ENDBRANCH   9  10
ENDBRANCH   8   9
ENDBRANCH   1   8
TORSDOF 9
TER
ENDMDL
MODEL       59
USER    Run = 59
USER    DPF = lac3.dpf
USER  
USER    Estimated Free Energy of Binding    =   -4.58 kcal/mol  [=(1)+(2)+(3)-(4)]
USER    Estimated Inhibition Constant, Ki   =  440.67 uM (micromolar)  [Temperature = 298.15 K]
USER    
USER    (1) Final Intermolecular Energy     =   -6.96 kcal/mol
USER        vdW + Hbond + desolv Energy     =   -6.95 kcal/mol
USER        Electrostatic Energy            =   -0.00 kcal/mol
USER    (2) Final Total Internal Energy     =   -0.59 kcal/mol
USER    (3) Torsional Free Energy           =   +2.68 kcal/mol
USER    (4) Unbound System's Energy         =   -0.29 kcal/mol
USER    
USER    
USER    NEWDPF move PE_ligand.pdbqt
USER    NEWDPF about 3.037000 5.209000 3.149000
USER    NEWDPF tran0 26.449343 37.239473 30.242505
USER    NEWDPF quaternion0 -0.513173 0.134564 0.086872 -0.843208
USER    NEWDPF axisangle0 -0.954584 0.250311 0.161597 -65.039220
USER    NEWDPF quat0 -0.954584 0.250311 0.161597 -65.039220
USER    NEWDPF dihe0 118.78 -116.34 -163.40 84.82 -179.01 151.94 -171.06 -11.60 114.15 
USER  keepresnum = 1 
USER  
REMARK  9 active torsions:
REMARK  status: ('A' for Active; 'I' for Inactive)
REMARK    1  A    between atoms: C1_1  and  C2_2 
REMARK    2  A    between atoms: C1_1  and  C3_3 
REMARK    3  A    between atoms: C2_2  and  C4_4 
REMARK    4  A    between atoms: C3_3  and  C5_5 
REMARK    5  A    between atoms: C4_4  and  C6_6 
REMARK    6  A    between atoms: C5_5  and  C7_7 
REMARK    7  A    between atoms: C6_6  and  C8_8 
REMARK    8  A    between atoms: C7_7  and  C9_9 
REMARK    9  A    between atoms: C8_8  and  C10_10 
USER                              x       y       z     vdW  Elec       q    Type
USER                           _______ _______ _______ _____ _____    ______ ____
ROOT
ATOM      1  C1  MOL C   1      26.201  38.315  29.870 -0.52 -0.00    +0.000 C 
ENDROOT
BRANCH   1   2
ATOM      2  C2  MOL C   1      27.587  37.655  29.912 -0.60 -0.00    +0.000 C 
BRANCH   2   3
ATOM      3  C4  MOL C   1      28.265  37.938  28.531 -0.62 -0.00    +0.000 C 
BRANCH   3   4
ATOM      4  C6  MOL C   1      27.500  39.076  27.671 -0.69 -0.00    +0.000 C 
BRANCH   4   5
ATOM      5  C8  MOL C   1      27.976  40.500  27.856 -0.66 +0.00    -0.000 C 
BRANCH   5   6
ATOM      6  C10 MOL C   1      29.210  40.467  28.751 -0.66 +0.00    -0.005 C 
ATOM      7  C12 MOL C   1      29.934  41.762  28.967 -0.74 -0.01    +0.005 C 
ENDBRANCH   5   6
ENDBRANCH   4   5
ENDBRANCH   3   4
ENDBRANCH   2   3
ENDBRANCH   1   2
BRANCH   1   8
ATOM      8  C3  MOL C   1      25.747  38.398  31.382 -0.45 -0.00    +0.000 C 
BRANCH   8   9
ATOM      9  C5  MOL C   1      24.139  38.752  31.429 -0.46 -0.00    +0.000 C 
BRANCH   9  10
ATOM     10  C7  MOL C   1      23.153  37.526  31.492 -0.44 +0.00    -0.000 C 
BRANCH  10  11
ATOM     11  C9  MOL C   1      22.864  36.831  30.116 -0.55 +0.00    -0.005 C 
ATOM     12  C11 MOL C   1      24.114  35.946  29.777 -0.58 -0.00    +0.005 C 
ENDBRANCH  10  11
ENDBRANCH   9  10
ENDBRANCH   8   9
ENDBRANCH   1   8
TORSDOF 9
TER
ENDMDL
MODEL       60
USER    Run = 60
USER    DPF = lac3.dpf
USER  
USER    Estimated Free Energy of Binding    =   -4.44 kcal/mol  [=(1)+(2)+(3)-(4)]
USER    Estimated Inhibition Constant, Ki   =  555.31 uM (micromolar)  [Temperature = 298.15 K]
USER    
USER    (1) Final Intermolecular Energy     =   -6.87 kcal/mol
USER        vdW + Hbond + desolv Energy     =   -6.87 kcal/mol
USER        Electrostatic Energy            =   -0.00 kcal/mol
USER    (2) Final Total Internal Energy     =   -0.54 kcal/mol
USER    (3) Torsional Free Energy           =   +2.68 kcal/mol
USER    (4) Unbound System's Energy         =   -0.29 kcal/mol
USER    
USER    
USER    NEWDPF move PE_ligand.pdbqt
USER    NEWDPF about 3.037000 5.209000 3.149000
USER    NEWDPF tran0 27.182032 38.019226 29.365511
USER    NEWDPF quaternion0 0.349752 -0.152271 -0.058547 -0.922529
USER    NEWDPF axisangle0 0.906262 -0.394557 -0.151705 -45.402752
USER    NEWDPF quat0 0.906262 -0.394557 -0.151705 -45.402752
USER    NEWDPF dihe0 170.77 176.54 166.45 -115.42 -133.62 -113.59 179.68 -18.49 21.23 
USER  keepresnum = 1 
USER  
REMARK  9 active torsions:
REMARK  status: ('A' for Active; 'I' for Inactive)
REMARK    1  A    between atoms: C1_1  and  C2_2 
REMARK    2  A    between atoms: C1_1  and  C3_3 
REMARK    3  A    between atoms: C2_2  and  C4_4 
REMARK    4  A    between atoms: C3_3  and  C5_5 
REMARK    5  A    between atoms: C4_4  and  C6_6 
REMARK    6  A    between atoms: C5_5  and  C7_7 
REMARK    7  A    between atoms: C6_6  and  C8_8 
REMARK    8  A    between atoms: C7_7  and  C9_9 
REMARK    9  A    between atoms: C8_8  and  C10_10 
USER                              x       y       z     vdW  Elec       q    Type
USER                           _______ _______ _______ _____ _____    ______ ____
ROOT
ATOM      1  C1  MOL C   1      26.836  38.223  30.459 -0.53 -0.00    +0.000 C 
ENDROOT
BRANCH   1   2
ATOM      2  C2  MOL C   1      28.183  37.633  30.017 -0.58 -0.00    +0.000 C 
BRANCH   2   3
ATOM      3  C4  MOL C   1      28.636  38.437  28.754 -0.59 -0.00    +0.000 C 
BRANCH   3   4
ATOM      4  C6  MOL C   1      27.642  39.661  28.392 -0.67 -0.00    +0.000 C 
BRANCH   4   5
ATOM      5  C8  MOL C   1      28.291  40.970  28.002 -0.66 +0.00    -0.000 C 
BRANCH   5   6
ATOM      6  C10 MOL C   1      29.687  40.999  28.616 -0.65 +0.00    -0.005 C 
ATOM      7  C12 MOL C   1      30.100  42.258  29.319 -0.73 -0.01    +0.005 C 
ENDBRANCH   5   6
ENDBRANCH   4   5
ENDBRANCH   3   4
ENDBRANCH   2   3
ENDBRANCH   1   2
BRANCH   1   8
ATOM      8  C3  MOL C   1      25.758  37.168  29.984 -0.54 -0.00    +0.000 C 
BRANCH   8   9
ATOM      9  C5  MOL C   1      24.258  37.792  30.255 -0.53 -0.00    +0.000 C 
BRANCH   9  10
ATOM     10  C7  MOL C   1      23.042  36.824  30.003 -0.57 +0.00    -0.000 C 
BRANCH  10  11
ATOM     11  C9  MOL C   1      22.760  35.792  31.149 -0.45 +0.00    -0.005 C 
ATOM     12  C11 MOL C   1      23.654  36.205  32.370 -0.38 -0.00    +0.005 C 
ENDBRANCH  10  11
ENDBRANCH   9  10
ENDBRANCH   8   9
ENDBRANCH   1   8
TORSDOF 9
TER
ENDMDL
MODEL       61
USER    Run = 61
USER    DPF = lac3.dpf
USER  
USER    Estimated Free Energy of Binding    =   -4.75 kcal/mol  [=(1)+(2)+(3)-(4)]
USER    Estimated Inhibition Constant, Ki   =  329.83 uM (micromolar)  [Temperature = 298.15 K]
USER    
USER    (1) Final Intermolecular Energy     =   -7.23 kcal/mol
USER        vdW + Hbond + desolv Energy     =   -7.23 kcal/mol
USER        Electrostatic Energy            =   +0.00 kcal/mol
USER    (2) Final Total Internal Energy     =   -0.49 kcal/mol
USER    (3) Torsional Free Energy           =   +2.68 kcal/mol
USER    (4) Unbound System's Energy         =   -0.29 kcal/mol
USER    
USER    
USER    NEWDPF move PE_ligand.pdbqt
USER    NEWDPF about 3.037000 5.209000 3.149000
USER    NEWDPF tran0 28.367864 39.689756 29.936008
USER    NEWDPF quaternion0 -0.695607 -0.447273 0.555650 0.085625
USER    NEWDPF axisangle0 -0.698171 -0.448921 0.557698 170.176111
USER    NEWDPF quat0 -0.698171 -0.448921 0.557698 170.176111
USER    NEWDPF dihe0 163.27 39.34 139.87 -41.26 -173.72 -129.80 49.83 -99.29 69.94 
USER  keepresnum = 1 
USER  
REMARK  9 active torsions:
REMARK  status: ('A' for Active; 'I' for Inactive)
REMARK    1  A    between atoms: C1_1  and  C2_2 
REMARK    2  A    between atoms: C1_1  and  C3_3 
REMARK    3  A    between atoms: C2_2  and  C4_4 
REMARK    4  A    between atoms: C3_3  and  C5_5 
REMARK    5  A    between atoms: C4_4  and  C6_6 
REMARK    6  A    between atoms: C5_5  and  C7_7 
REMARK    7  A    between atoms: C6_6  and  C8_8 
REMARK    8  A    between atoms: C7_7  and  C9_9 
REMARK    9  A    between atoms: C8_8  and  C10_10 
USER                              x       y       z     vdW  Elec       q    Type
USER                           _______ _______ _______ _____ _____    ______ ____
ROOT
ATOM      1  C1  MOL C   1      28.470  38.651  29.418 -0.61 -0.00    +0.000 C 
ENDROOT
BRANCH   1   2
ATOM      2  C2  MOL C   1      28.185  39.995  28.732 -0.64 -0.00    +0.000 C 
BRANCH   2   3
ATOM      3  C4  MOL C   1      29.571  40.626  28.377 -0.59 -0.00    +0.000 C 
BRANCH   3   4
ATOM      4  C6  MOL C   1      29.756  42.122  28.966 -0.73 -0.00    +0.000 C 
BRANCH   4   5
ATOM      5  C8  MOL C   1      30.501  42.249  30.276 -0.68 +0.00    -0.000 C 
BRANCH   5   6
ATOM      6  C10 MOL C   1      29.869  41.279  31.268 -0.62 +0.01    -0.005 C 
ATOM      7  C12 MOL C   1      29.728  41.744  32.686 -0.61 -0.00    +0.005 C 
ENDBRANCH   5   6
ENDBRANCH   4   5
ENDBRANCH   3   4
ENDBRANCH   2   3
ENDBRANCH   1   2
BRANCH   1   8
ATOM      8  C3  MOL C   1      27.225  38.406  30.360 -0.54 -0.00    +0.000 C 
BRANCH   8   9
ATOM      9  C5  MOL C   1      26.278  37.239  29.686 -0.55 -0.00    +0.000 C 
BRANCH   9  10
ATOM     10  C7  MOL C   1      25.105  36.686  30.579 -0.48 +0.00    -0.000 C 
BRANCH  10  11
ATOM     11  C9  MOL C   1      23.872  36.123  29.790 -0.63 +0.00    -0.005 C 
ATOM     12  C11 MOL C   1      22.598  36.843  30.355 -0.53 -0.00    +0.005 C 
ENDBRANCH  10  11
ENDBRANCH   9  10
ENDBRANCH   8   9
ENDBRANCH   1   8
TORSDOF 9
TER
ENDMDL
MODEL       62
USER    Run = 62
USER    DPF = lac3.dpf
USER  
USER    Estimated Free Energy of Binding    =   -4.73 kcal/mol  [=(1)+(2)+(3)-(4)]
USER    Estimated Inhibition Constant, Ki   =  339.31 uM (micromolar)  [Temperature = 298.15 K]
USER    
USER    (1) Final Intermolecular Energy     =   -7.07 kcal/mol
USER        vdW + Hbond + desolv Energy     =   -7.07 kcal/mol
USER        Electrostatic Energy            =   -0.00 kcal/mol
USER    (2) Final Total Internal Energy     =   -0.64 kcal/mol
USER    (3) Torsional Free Energy           =   +2.68 kcal/mol
USER    (4) Unbound System's Energy         =   -0.29 kcal/mol
USER    
USER    
USER    NEWDPF move PE_ligand.pdbqt
USER    NEWDPF about 3.037000 5.209000 3.149000
USER    NEWDPF tran0 28.563686 41.111821 29.509560
USER    NEWDPF quaternion0 0.512017 -0.716989 0.441912 0.168760
USER    NEWDPF axisangle0 0.519468 -0.727422 0.448342 160.568539
USER    NEWDPF quat0 0.519468 -0.727422 0.448342 160.568539
USER    NEWDPF dihe0 152.49 -87.16 89.77 40.38 132.86 160.29 30.34 80.63 -154.15 
USER  keepresnum = 1 
USER  
REMARK  9 active torsions:
REMARK  status: ('A' for Active; 'I' for Inactive)
REMARK    1  A    between atoms: C1_1  and  C2_2 
REMARK    2  A    between atoms: C1_1  and  C3_3 
REMARK    3  A    between atoms: C2_2  and  C4_4 
REMARK    4  A    between atoms: C3_3  and  C5_5 
REMARK    5  A    between atoms: C4_4  and  C6_6 
REMARK    6  A    between atoms: C5_5  and  C7_7 
REMARK    7  A    between atoms: C6_6  and  C8_8 
REMARK    8  A    between atoms: C7_7  and  C9_9 
REMARK    9  A    between atoms: C8_8  and  C10_10 
USER                              x       y       z     vdW  Elec       q    Type
USER                           _______ _______ _______ _____ _____    ______ ____
ROOT
ATOM      1  C1  MOL C   1      28.623  40.933  28.360 -0.69 -0.00    +0.000 C 
ENDROOT
BRANCH   1   2
ATOM      2  C2  MOL C   1      28.247  39.900  29.431 -0.51 -0.00    +0.000 C 
BRANCH   2   3
ATOM      3  C4  MOL C   1      29.036  38.591  29.096 -0.53 -0.00    +0.000 C 
BRANCH   3   4
ATOM      4  C6  MOL C   1      28.207  37.245  29.443 -0.64 -0.00    +0.000 C 
BRANCH   4   5
ATOM      5  C8  MOL C   1      26.747  37.227  29.052 -0.58 +0.00    -0.000 C 
BRANCH   5   6
ATOM      6  C10 MOL C   1      25.924  37.507  30.305 -0.54 +0.00    -0.005 C 
ATOM      7  C12 MOL C   1      24.540  36.933  30.358 -0.58 -0.00    +0.005 C 
ENDBRANCH   5   6
ENDBRANCH   4   5
ENDBRANCH   3   4
ENDBRANCH   2   3
ENDBRANCH   1   2
BRANCH   1   8
ATOM      8  C3  MOL C   1      30.117  41.331  28.690 -0.60 -0.00    +0.000 C 
BRANCH   8   9
ATOM      9  C5  MOL C   1      30.121  42.303  30.020 -0.71 -0.00    +0.000 C 
BRANCH   9  10
ATOM     10  C7  MOL C   1      30.501  41.619  31.385 -0.69 +0.00    -0.000 C 
BRANCH  10  11
ATOM     11  C9  MOL C   1      29.450  41.794  32.536 -0.56 +0.00    -0.005 C 
ATOM     12  C11 MOL C   1      28.726  40.414  32.711 -0.45 -0.01    +0.005 C 
ENDBRANCH  10  11
ENDBRANCH   9  10
ENDBRANCH   8   9
ENDBRANCH   1   8
TORSDOF 9
TER
ENDMDL
MODEL       63
USER    Run = 63
USER    DPF = lac3.dpf
USER  
USER    Estimated Free Energy of Binding    =   -4.26 kcal/mol  [=(1)+(2)+(3)-(4)]
USER    Estimated Inhibition Constant, Ki   =  756.53 uM (micromolar)  [Temperature = 298.15 K]
USER    
USER    (1) Final Intermolecular Energy     =   -6.75 kcal/mol
USER        vdW + Hbond + desolv Energy     =   -6.75 kcal/mol
USER        Electrostatic Energy            =   -0.00 kcal/mol
USER    (2) Final Total Internal Energy     =   -0.47 kcal/mol
USER    (3) Torsional Free Energy           =   +2.68 kcal/mol
USER    (4) Unbound System's Energy         =   -0.29 kcal/mol
USER    
USER    
USER    NEWDPF move PE_ligand.pdbqt
USER    NEWDPF about 3.037000 5.209000 3.149000
USER    NEWDPF tran0 26.744644 37.034341 30.513474
USER    NEWDPF quaternion0 -0.838445 0.052959 0.130865 -0.526384
USER    NEWDPF axisangle0 -0.986119 0.062287 0.153914 -116.477045
USER    NEWDPF quat0 -0.986119 0.062287 0.153914 -116.477045
USER    NEWDPF dihe0 -62.82 79.85 22.99 -129.80 -56.84 -39.97 -76.19 75.15 174.96 
USER  keepresnum = 1 
USER  
REMARK  9 active torsions:
REMARK  status: ('A' for Active; 'I' for Inactive)
REMARK    1  A    between atoms: C1_1  and  C2_2 
REMARK    2  A    between atoms: C1_1  and  C3_3 
REMARK    3  A    between atoms: C2_2  and  C4_4 
REMARK    4  A    between atoms: C3_3  and  C5_5 
REMARK    5  A    between atoms: C4_4  and  C6_6 
REMARK    6  A    between atoms: C5_5  and  C7_7 
REMARK    7  A    between atoms: C6_6  and  C8_8 
REMARK    8  A    between atoms: C7_7  and  C9_9 
REMARK    9  A    between atoms: C8_8  and  C10_10 
USER                              x       y       z     vdW  Elec       q    Type
USER                           _______ _______ _______ _____ _____    ______ ____
ROOT
ATOM      1  C1  MOL C   1      26.317  37.323  29.469 -0.54 -0.00    +0.000 C 
ENDROOT
BRANCH   1   2
ATOM      2  C2  MOL C   1      27.789  37.371  29.904 -0.58 -0.00    +0.000 C 
BRANCH   2   3
ATOM      3  C4  MOL C   1      28.550  38.220  28.833 -0.62 -0.00    +0.000 C 
BRANCH   3   4
ATOM      4  C6  MOL C   1      29.002  39.674  29.381 -0.56 -0.00    +0.000 C 
BRANCH   4   5
ATOM      5  C8  MOL C   1      29.001  40.807  28.380 -0.72 +0.00    -0.000 C 
BRANCH   5   6
ATOM      6  C10 MOL C   1      29.736  41.986  29.009 -0.73 +0.01    -0.005 C 
ATOM      7  C12 MOL C   1      30.129  41.859  30.450 -0.71 -0.01    +0.005 C 
ENDBRANCH   5   6
ENDBRANCH   4   5
ENDBRANCH   3   4
ENDBRANCH   2   3
ENDBRANCH   1   2
BRANCH   1   8
ATOM      8  C3  MOL C   1      25.586  38.368  30.403 -0.50 -0.00    +0.000 C 
BRANCH   8   9
ATOM      9  C5  MOL C   1      25.315  37.664  31.868 -0.42 -0.00    +0.000 C 
BRANCH   9  10
ATOM     10  C7  MOL C   1      23.866  37.101  32.116 -0.39 +0.00    -0.000 C 
BRANCH  10  11
ATOM     11  C9  MOL C   1      23.443  35.911  31.186 -0.45 +0.00    -0.005 C 
ATOM     12  C11 MOL C   1      22.847  36.539  29.878 -0.54 -0.00    +0.005 C 
ENDBRANCH  10  11
ENDBRANCH   9  10
ENDBRANCH   8   9
ENDBRANCH   1   8
TORSDOF 9
TER
ENDMDL
MODEL       64
USER    Run = 64
USER    DPF = lac3.dpf
USER  
USER    Estimated Free Energy of Binding    =   -4.39 kcal/mol  [=(1)+(2)+(3)-(4)]
USER    Estimated Inhibition Constant, Ki   =  607.97 uM (micromolar)  [Temperature = 298.15 K]
USER    
USER    (1) Final Intermolecular Energy     =   -6.62 kcal/mol
USER        vdW + Hbond + desolv Energy     =   -6.63 kcal/mol
USER        Electrostatic Energy            =   +0.00 kcal/mol
USER    (2) Final Total Internal Energy     =   -0.73 kcal/mol
USER    (3) Torsional Free Energy           =   +2.68 kcal/mol
USER    (4) Unbound System's Energy         =   -0.29 kcal/mol
USER    
USER    
USER    NEWDPF move PE_ligand.pdbqt
USER    NEWDPF about 3.037000 5.209000 3.149000
USER    NEWDPF tran0 29.182089 39.644989 29.532994
USER    NEWDPF quaternion0 -0.683778 0.716769 0.087808 -0.104783
USER    NEWDPF axisangle0 -0.687563 0.720737 0.088294 -167.970723
USER    NEWDPF quat0 -0.687563 0.720737 0.088294 -167.970723
USER    NEWDPF dihe0 -27.50 35.98 22.59 67.35 -33.77 128.89 175.98 39.17 81.55 
USER  keepresnum = 1 
USER  
REMARK  9 active torsions:
REMARK  status: ('A' for Active; 'I' for Inactive)
REMARK    1  A    between atoms: C1_1  and  C2_2 
REMARK    2  A    between atoms: C1_1  and  C3_3 
REMARK    3  A    between atoms: C2_2  and  C4_4 
REMARK    4  A    between atoms: C3_3  and  C5_5 
REMARK    5  A    between atoms: C4_4  and  C6_6 
REMARK    6  A    between atoms: C5_5  and  C7_7 
REMARK    7  A    between atoms: C6_6  and  C8_8 
REMARK    8  A    between atoms: C7_7  and  C9_9 
REMARK    9  A    between atoms: C8_8  and  C10_10 
USER                              x       y       z     vdW  Elec       q    Type
USER                           _______ _______ _______ _____ _____    ______ ____
ROOT
ATOM      1  C1  MOL C   1      28.334  39.998  28.817 -0.65 -0.00    +0.000 C 
ENDROOT
BRANCH   1   2
ATOM      2  C2  MOL C   1      28.998  38.613  28.842 -0.50 -0.00    +0.000 C 
BRANCH   2   3
ATOM      3  C4  MOL C   1      28.019  37.655  29.596 -0.63 -0.00    +0.000 C 
BRANCH   3   4
ATOM      4  C6  MOL C   1      26.660  38.390  30.080 -0.53 -0.00    +0.000 C 
BRANCH   4   5
ATOM      5  C8  MOL C   1      26.345  38.331  31.557 -0.45 +0.00    -0.000 C 
BRANCH   5   6
ATOM      6  C10 MOL C   1      24.911  38.811  31.749 -0.41 +0.00    -0.005 C 
ATOM      7  C12 MOL C   1      23.961  38.604  30.607 -0.52 -0.00    +0.005 C 
ENDBRANCH   5   6
ENDBRANCH   4   5
ENDBRANCH   3   4
ENDBRANCH   2   3
ENDBRANCH   1   2
BRANCH   1   8
ATOM      8  C3  MOL C   1      29.498  40.997  28.434 -0.68 -0.00    +0.000 C 
BRANCH   8   9
ATOM      9  C5  MOL C   1      29.750  42.019  29.702 -0.61 -0.00    +0.000 C 
BRANCH   9  10
ATOM     10  C7  MOL C   1      30.381  41.385  30.997 -0.56 +0.00    -0.000 C 
BRANCH  10  11
ATOM     11  C9  MOL C   1      29.358  41.012  32.125 -0.55 +0.01    -0.005 C 
ATOM     12  C11 MOL C   1      29.908  41.617  33.463 -0.54 -0.00    +0.005 C 
ENDBRANCH  10  11
ENDBRANCH   9  10
ENDBRANCH   8   9
ENDBRANCH   1   8
TORSDOF 9
TER
ENDMDL
MODEL       65
USER    Run = 65
USER    DPF = lac3.dpf
USER  
USER    Estimated Free Energy of Binding    =   -4.19 kcal/mol  [=(1)+(2)+(3)-(4)]
USER    Estimated Inhibition Constant, Ki   =  850.15 uM (micromolar)  [Temperature = 298.15 K]
USER    
USER    (1) Final Intermolecular Energy     =   -6.65 kcal/mol
USER        vdW + Hbond + desolv Energy     =   -6.65 kcal/mol
USER        Electrostatic Energy            =   -0.00 kcal/mol
USER    (2) Final Total Internal Energy     =   -0.51 kcal/mol
USER    (3) Torsional Free Energy           =   +2.68 kcal/mol
USER    (4) Unbound System's Energy         =   -0.29 kcal/mol
USER    
USER    
USER    NEWDPF move PE_ligand.pdbqt
USER    NEWDPF about 3.037000 5.209000 3.149000
USER    NEWDPF tran0 26.656386 37.123057 30.254192
USER    NEWDPF quaternion0 0.271690 0.239350 -0.255526 0.896439
USER    NEWDPF axisangle0 0.613063 0.540089 -0.576591 52.612277
USER    NEWDPF quat0 0.613063 0.540089 -0.576591 52.612277
USER    NEWDPF dihe0 -54.79 134.08 -27.26 78.81 25.84 -18.66 -89.89 4.76 33.03 
USER  keepresnum = 1 
USER  
REMARK  9 active torsions:
REMARK  status: ('A' for Active; 'I' for Inactive)
REMARK    1  A    between atoms: C1_1  and  C2_2 
REMARK    2  A    between atoms: C1_1  and  C3_3 
REMARK    3  A    between atoms: C2_2  and  C4_4 
REMARK    4  A    between atoms: C3_3  and  C5_5 
REMARK    5  A    between atoms: C4_4  and  C6_6 
REMARK    6  A    between atoms: C5_5  and  C7_7 
REMARK    7  A    between atoms: C6_6  and  C8_8 
REMARK    8  A    between atoms: C7_7  and  C9_9 
REMARK    9  A    between atoms: C8_8  and  C10_10 
USER                              x       y       z     vdW  Elec       q    Type
USER                           _______ _______ _______ _____ _____    ______ ____
ROOT
ATOM      1  C1  MOL C   1      25.855  37.969  30.248 -0.53 -0.00    +0.000 C 
ENDROOT
BRANCH   1   2
ATOM      2  C2  MOL C   1      27.288  38.065  30.792 -0.52 -0.00    +0.000 C 
BRANCH   2   3
ATOM      3  C4  MOL C   1      28.240  37.580  29.650 -0.62 -0.00    +0.000 C 
BRANCH   3   4
ATOM      4  C6  MOL C   1      28.822  38.794  28.752 -0.53 -0.00    +0.000 C 
BRANCH   4   5
ATOM      5  C8  MOL C   1      27.813  39.599  27.964 -0.70 +0.00    -0.000 C 
BRANCH   5   6
ATOM      6  C10 MOL C   1      28.249  41.060  28.003 -0.63 +0.00    -0.005 C 
ATOM      7  C12 MOL C   1      29.512  41.379  28.745 -0.73 -0.00    +0.005 C 
ENDBRANCH   5   6
ENDBRANCH   4   5
ENDBRANCH   3   4
ENDBRANCH   2   3
ENDBRANCH   1   2
BRANCH   1   8
ATOM      8  C3  MOL C   1      25.151  36.882  31.154 -0.50 -0.00    +0.000 C 
BRANCH   8   9
ATOM      9  C5  MOL C   1      23.993  36.123  30.261 -0.60 -0.00    +0.000 C 
BRANCH   9  10
ATOM     10  C7  MOL C   1      22.641  36.903  30.060 -0.51 +0.00    -0.000 C 
BRANCH  10  11
ATOM     11  C9  MOL C   1      21.577  36.700  31.194 -0.42 +0.00    -0.005 C 
ATOM     12  C11 MOL C   1      21.759  35.240  31.738 -0.34 -0.00    +0.005 C 
ENDBRANCH  10  11
ENDBRANCH   9  10
ENDBRANCH   8   9
ENDBRANCH   1   8
TORSDOF 9
TER
ENDMDL
MODEL       66
USER    Run = 66
USER    DPF = lac3.dpf
USER  
USER    Estimated Free Energy of Binding    =   -4.43 kcal/mol  [=(1)+(2)+(3)-(4)]
USER    Estimated Inhibition Constant, Ki   =  563.96 uM (micromolar)  [Temperature = 298.15 K]
USER    
USER    (1) Final Intermolecular Energy     =   -6.81 kcal/mol
USER        vdW + Hbond + desolv Energy     =   -6.81 kcal/mol
USER        Electrostatic Energy            =   -0.00 kcal/mol
USER    (2) Final Total Internal Energy     =   -0.59 kcal/mol
USER    (3) Torsional Free Energy           =   +2.68 kcal/mol
USER    (4) Unbound System's Energy         =   -0.29 kcal/mol
USER    
USER    
USER    NEWDPF move PE_ligand.pdbqt
USER    NEWDPF about 3.037000 5.209000 3.149000
USER    NEWDPF tran0 27.195185 37.357247 30.944128
USER    NEWDPF quaternion0 0.671752 -0.151460 -0.216027 0.692201
USER    NEWDPF axisangle0 0.930784 -0.209864 -0.299329 92.390839
USER    NEWDPF quat0 0.930784 -0.209864 -0.299329 92.390839
USER    NEWDPF dihe0 122.72 -149.57 -164.90 -115.62 166.48 -9.07 -153.84 18.06 116.05 
USER  keepresnum = 1 
USER  
REMARK  9 active torsions:
REMARK  status: ('A' for Active; 'I' for Inactive)
REMARK    1  A    between atoms: C1_1  and  C2_2 
REMARK    2  A    between atoms: C1_1  and  C3_3 
REMARK    3  A    between atoms: C2_2  and  C4_4 
REMARK    4  A    between atoms: C3_3  and  C5_5 
REMARK    5  A    between atoms: C4_4  and  C6_6 
REMARK    6  A    between atoms: C5_5  and  C7_7 
REMARK    7  A    between atoms: C6_6  and  C8_8 
REMARK    8  A    between atoms: C7_7  and  C9_9 
REMARK    9  A    between atoms: C8_8  and  C10_10 
USER                              x       y       z     vdW  Elec       q    Type
USER                           _______ _______ _______ _____ _____    ______ ____
ROOT
ATOM      1  C1  MOL C   1      26.599  38.106  30.280 -0.53 -0.00    +0.000 C 
ENDROOT
BRANCH   1   2
ATOM      2  C2  MOL C   1      28.113  37.852  30.245 -0.57 -0.00    +0.000 C 
BRANCH   2   3
ATOM      3  C4  MOL C   1      28.521  37.751  28.739 -0.64 -0.00    +0.000 C 
BRANCH   3   4
ATOM      4  C6  MOL C   1      27.595  38.658  27.769 -0.62 -0.00    +0.000 C 
BRANCH   4   5
ATOM      5  C8  MOL C   1      27.876  40.143  27.759 -0.70 +0.00    -0.000 C 
BRANCH   5   6
ATOM      6  C10 MOL C   1      29.095  40.394  28.639 -0.66 +0.00    -0.005 C 
ATOM      7  C12 MOL C   1      29.584  41.808  28.747 -0.72 -0.01    +0.005 C 
ENDBRANCH   5   6
ENDBRANCH   4   5
ENDBRANCH   3   4
ENDBRANCH   2   3
ENDBRANCH   1   2
BRANCH   1   8
ATOM      8  C3  MOL C   1      26.320  38.684  31.724 -0.43 -0.00    +0.000 C 
BRANCH   8   9
ATOM      9  C5  MOL C   1      24.959  37.971  32.321 -0.38 -0.00    +0.000 C 
BRANCH   9  10
ATOM     10  C7  MOL C   1      23.604  38.353  31.617 -0.44 +0.00    -0.000 C 
BRANCH  10  11
ATOM     11  C9  MOL C   1      23.329  37.623  30.256 -0.52 +0.00    -0.005 C 
ATOM     12  C11 MOL C   1      23.708  36.115  30.458 -0.58 -0.00    +0.005 C 
ENDBRANCH  10  11
ENDBRANCH   9  10
ENDBRANCH   8   9
ENDBRANCH   1   8
TORSDOF 9
TER
ENDMDL
MODEL       67
USER    Run = 67
USER    DPF = lac3.dpf
USER  
USER    Estimated Free Energy of Binding    =   -4.18 kcal/mol  [=(1)+(2)+(3)-(4)]
USER    Estimated Inhibition Constant, Ki   =  864.77 uM (micromolar)  [Temperature = 298.15 K]
USER    
USER    (1) Final Intermolecular Energy     =   -6.63 kcal/mol
USER        vdW + Hbond + desolv Energy     =   -6.62 kcal/mol
USER        Electrostatic Energy            =   -0.00 kcal/mol
USER    (2) Final Total Internal Energy     =   -0.52 kcal/mol
USER    (3) Torsional Free Energy           =   +2.68 kcal/mol
USER    (4) Unbound System's Energy         =   -0.29 kcal/mol
USER    
USER    
USER    NEWDPF move PE_ligand.pdbqt
USER    NEWDPF about 3.037000 5.209000 3.149000
USER    NEWDPF tran0 27.000479 37.750702 29.281229
USER    NEWDPF quaternion0 0.134038 -0.281956 0.164360 -0.935692
USER    NEWDPF axisangle0 0.379909 -0.799158 0.465850 -41.319426
USER    NEWDPF quat0 0.379909 -0.799158 0.465850 -41.319426
USER    NEWDPF dihe0 174.14 42.52 177.79 -124.39 -128.91 -58.49 -164.41 -41.36 38.43 
USER  keepresnum = 1 
USER  
REMARK  9 active torsions:
REMARK  status: ('A' for Active; 'I' for Inactive)
REMARK    1  A    between atoms: C1_1  and  C2_2 
REMARK    2  A    between atoms: C1_1  and  C3_3 
REMARK    3  A    between atoms: C2_2  and  C4_4 
REMARK    4  A    between atoms: C3_3  and  C5_5 
REMARK    5  A    between atoms: C4_4  and  C6_6 
REMARK    6  A    between atoms: C5_5  and  C7_7 
REMARK    7  A    between atoms: C6_6  and  C8_8 
REMARK    8  A    between atoms: C7_7  and  C9_9 
REMARK    9  A    between atoms: C8_8  and  C10_10 
USER                              x       y       z     vdW  Elec       q    Type
USER                           _______ _______ _______ _____ _____    ______ ____
ROOT
ATOM      1  C1  MOL C   1      26.212  38.263  29.969 -0.52 -0.00    +0.000 C 
ENDROOT
BRANCH   1   2
ATOM      2  C2  MOL C   1      27.694  38.027  30.290 -0.58 -0.00    +0.000 C 
BRANCH   2   3
ATOM      3  C4  MOL C   1      28.520  38.739  29.169 -0.62 -0.00    +0.000 C 
BRANCH   3   4
ATOM      4  C6  MOL C   1      27.675  39.876  28.385 -0.66 -0.00    +0.000 C 
BRANCH   4   5
ATOM      5  C8  MOL C   1      28.422  41.133  28.003 -0.60 +0.00    -0.000 C 
BRANCH   5   6
ATOM      6  C10 MOL C   1      29.748  41.136  28.756 -0.68 +0.01    -0.005 C 
ATOM      7  C12 MOL C   1      30.110  42.386  29.501 -0.73 -0.01    +0.005 C 
ENDBRANCH   5   6
ENDBRANCH   4   5
ENDBRANCH   3   4
ENDBRANCH   2   3
ENDBRANCH   1   2
BRANCH   1   8
ATOM      8  C3  MOL C   1      25.596  36.815  29.816 -0.49 -0.00    +0.000 C 
BRANCH   8   9
ATOM      9  C5  MOL C   1      23.955  36.929  29.907 -0.55 -0.00    +0.000 C 
BRANCH   9  10
ATOM     10  C7  MOL C   1      23.266  36.167  31.099 -0.50 +0.00    -0.000 C 
BRANCH  10  11
ATOM     11  C9  MOL C   1      23.525  36.775  32.521 -0.34 +0.00    -0.005 C 
ATOM     12  C11 MOL C   1      24.137  35.633  33.405 -0.35 -0.00    +0.005 C 
ENDBRANCH  10  11
ENDBRANCH   9  10
ENDBRANCH   8   9
ENDBRANCH   1   8
TORSDOF 9
TER
ENDMDL
MODEL       68
USER    Run = 68
USER    DPF = lac3.dpf
USER  
USER    Estimated Free Energy of Binding    =   -4.57 kcal/mol  [=(1)+(2)+(3)-(4)]
USER    Estimated Inhibition Constant, Ki   =  446.88 uM (micromolar)  [Temperature = 298.15 K]
USER    
USER    (1) Final Intermolecular Energy     =   -6.90 kcal/mol
USER        vdW + Hbond + desolv Energy     =   -6.90 kcal/mol
USER        Electrostatic Energy            =   +0.00 kcal/mol
USER    (2) Final Total Internal Energy     =   -0.64 kcal/mol
USER    (3) Torsional Free Energy           =   +2.68 kcal/mol
USER    (4) Unbound System's Energy         =   -0.29 kcal/mol
USER    
USER    
USER    NEWDPF move PE_ligand.pdbqt
USER    NEWDPF about 3.037000 5.209000 3.149000
USER    NEWDPF tran0 27.226784 39.207650 29.742559
USER    NEWDPF quaternion0 -0.749238 -0.539152 0.065743 0.378994
USER    NEWDPF axisangle0 -0.809637 -0.582615 0.071043 135.457283
USER    NEWDPF quat0 -0.809637 -0.582615 0.071043 135.457283
USER    NEWDPF dihe0 162.24 135.91 173.10 71.99 -172.92 180.00 34.68 35.64 139.15 
USER  keepresnum = 1 
USER  
REMARK  9 active torsions:
REMARK  status: ('A' for Active; 'I' for Inactive)
REMARK    1  A    between atoms: C1_1  and  C2_2 
REMARK    2  A    between atoms: C1_1  and  C3_3 
REMARK    3  A    between atoms: C2_2  and  C4_4 
REMARK    4  A    between atoms: C3_3  and  C5_5 
REMARK    5  A    between atoms: C4_4  and  C6_6 
REMARK    6  A    between atoms: C5_5  and  C7_7 
REMARK    7  A    between atoms: C6_6  and  C8_8 
REMARK    8  A    between atoms: C7_7  and  C9_9 
REMARK    9  A    between atoms: C8_8  and  C10_10 
USER                              x       y       z     vdW  Elec       q    Type
USER                           _______ _______ _______ _____ _____    ______ ____
ROOT
ATOM      1  C1  MOL C   1      28.170  38.525  29.699 -0.60 -0.00    +0.000 C 
ENDROOT
BRANCH   1   2
ATOM      2  C2  MOL C   1      27.956  39.844  28.944 -0.57 -0.00    +0.000 C 
BRANCH   2   3
ATOM      3  C4  MOL C   1      29.374  40.382  28.562 -0.60 -0.00    +0.000 C 
BRANCH   3   4
ATOM      4  C6  MOL C   1      29.505  41.988  28.715 -0.66 -0.00    +0.000 C 
BRANCH   4   5
ATOM      5  C8  MOL C   1      30.131  42.500  29.993 -0.68 +0.00    -0.000 C 
BRANCH   5   6
ATOM      6  C10 MOL C   1      30.089  41.371  31.017 -0.65 +0.01    -0.005 C 
ATOM      7  C12 MOL C   1      29.805  41.748  32.440 -0.63 -0.01    +0.005 C 
ENDBRANCH   5   6
ENDBRANCH   4   5
ENDBRANCH   3   4
ENDBRANCH   2   3
ENDBRANCH   1   2
BRANCH   1   8
ATOM      8  C3  MOL C   1      27.057  37.553  29.137 -0.61 -0.00    +0.000 C 
BRANCH   8   9
ATOM      9  C5  MOL C   1      26.083  37.092  30.383 -0.48 -0.00    +0.000 C 
BRANCH   9  10
ATOM     10  C7  MOL C   1      24.557  37.453  30.249 -0.55 +0.00    -0.000 C 
BRANCH  10  11
ATOM     11  C9  MOL C   1      24.129  38.807  30.914 -0.50 +0.00    -0.005 C 
ATOM     12  C11 MOL C   1      25.077  39.035  32.143 -0.37 -0.00    +0.005 C 
ENDBRANCH  10  11
ENDBRANCH   9  10
ENDBRANCH   8   9
ENDBRANCH   1   8
TORSDOF 9
TER
ENDMDL
MODEL       69
USER    Run = 69
USER    DPF = lac3.dpf
USER  
USER    Estimated Free Energy of Binding    =   -4.63 kcal/mol  [=(1)+(2)+(3)-(4)]
USER    Estimated Inhibition Constant, Ki   =  401.15 uM (micromolar)  [Temperature = 298.15 K]
USER    
USER    (1) Final Intermolecular Energy     =   -6.95 kcal/mol
USER        vdW + Hbond + desolv Energy     =   -6.95 kcal/mol
USER        Electrostatic Energy            =   +0.00 kcal/mol
USER    (2) Final Total Internal Energy     =   -0.65 kcal/mol
USER    (3) Torsional Free Energy           =   +2.68 kcal/mol
USER    (4) Unbound System's Energy         =   -0.29 kcal/mol
USER    
USER    
USER    NEWDPF move PE_ligand.pdbqt
USER    NEWDPF about 3.037000 5.209000 3.149000
USER    NEWDPF tran0 28.973628 39.835234 27.850194
USER    NEWDPF quaternion0 0.081259 -0.018152 0.496213 -0.864199
USER    NEWDPF axisangle0 0.161501 -0.036077 0.986213 -60.417234
USER    NEWDPF quat0 0.161501 -0.036077 0.986213 -60.417234
USER    NEWDPF dihe0 -84.79 1.95 -19.75 15.81 -78.57 143.37 -134.17 -55.14 176.70 
USER  keepresnum = 1 
USER  
REMARK  9 active torsions:
REMARK  status: ('A' for Active; 'I' for Inactive)
REMARK    1  A    between atoms: C1_1  and  C2_2 
REMARK    2  A    between atoms: C1_1  and  C3_3 
REMARK    3  A    between atoms: C2_2  and  C4_4 
REMARK    4  A    between atoms: C3_3  and  C5_5 
REMARK    5  A    between atoms: C4_4  and  C6_6 
REMARK    6  A    between atoms: C5_5  and  C7_7 
REMARK    7  A    between atoms: C6_6  and  C8_8 
REMARK    8  A    between atoms: C7_7  and  C9_9 
REMARK    9  A    between atoms: C8_8  and  C10_10 
USER                              x       y       z     vdW  Elec       q    Type
USER                           _______ _______ _______ _____ _____    ______ ____
ROOT
ATOM      1  C1  MOL C   1      28.201  40.055  28.694 -0.65 -0.00    +0.000 C 
ENDROOT
BRANCH   1   2
ATOM      2  C2  MOL C   1      29.469  40.861  28.378 -0.66 -0.00    +0.000 C 
BRANCH   2   3
ATOM      3  C4  MOL C   1      29.758  41.759  29.625 -0.66 -0.00    +0.000 C 
BRANCH   3   4
ATOM      4  C6  MOL C   1      29.753  40.932  31.016 -0.56 -0.00    +0.000 C 
BRANCH   4   5
ATOM      5  C8  MOL C   1      29.742  41.747  32.290 -0.63 +0.00    -0.000 C 
BRANCH   5   6
ATOM      6  C10 MOL C   1      29.001  40.942  33.352 -0.46 +0.00    -0.005 C 
ATOM      7  C12 MOL C   1      27.935  40.000  32.879 -0.41 -0.00    +0.005 C 
ENDBRANCH   5   6
ENDBRANCH   4   5
ENDBRANCH   3   4
ENDBRANCH   2   3
ENDBRANCH   1   2
BRANCH   1   8
ATOM      8  C3  MOL C   1      28.726  38.626  29.119 -0.61 -0.00    +0.000 C 
BRANCH   8   9
ATOM      9  C5  MOL C   1      27.664  37.976  30.199 -0.58 -0.00    +0.000 C 
BRANCH   9  10
ATOM     10  C7  MOL C   1      26.408  37.247  29.592 -0.56 +0.00    -0.000 C 
BRANCH  10  11
ATOM     11  C9  MOL C   1      25.115  37.294  30.479 -0.54 +0.00    -0.005 C 
ATOM     12  C11 MOL C   1      24.132  36.209  29.916 -0.62 -0.00    +0.005 C 
ENDBRANCH  10  11
ENDBRANCH   9  10
ENDBRANCH   8   9
ENDBRANCH   1   8
TORSDOF 9
TER
ENDMDL
MODEL       70
USER    Run = 70
USER    DPF = lac3.dpf
USER  
USER    Estimated Free Energy of Binding    =   -4.43 kcal/mol  [=(1)+(2)+(3)-(4)]
USER    Estimated Inhibition Constant, Ki   =  570.12 uM (micromolar)  [Temperature = 298.15 K]
USER    
USER    (1) Final Intermolecular Energy     =   -6.81 kcal/mol
USER        vdW + Hbond + desolv Energy     =   -6.81 kcal/mol
USER        Electrostatic Energy            =   -0.00 kcal/mol
USER    (2) Final Total Internal Energy     =   -0.59 kcal/mol
USER    (3) Torsional Free Energy           =   +2.68 kcal/mol
USER    (4) Unbound System's Energy         =   -0.29 kcal/mol
USER    
USER    
USER    NEWDPF move PE_ligand.pdbqt
USER    NEWDPF about 3.037000 5.209000 3.149000
USER    NEWDPF tran0 26.813549 38.237721 30.297276
USER    NEWDPF quaternion0 0.832679 0.514098 -0.012068 -0.205435
USER    NEWDPF axisangle0 0.850826 0.525303 -0.012331 -156.290048
USER    NEWDPF quat0 0.850826 0.525303 -0.012331 -156.290048
USER    NEWDPF dihe0 125.71 179.13 136.12 56.56 -173.96 157.84 -1.40 61.10 -179.18 
USER  keepresnum = 1 
USER  
REMARK  9 active torsions:
REMARK  status: ('A' for Active; 'I' for Inactive)
REMARK    1  A    between atoms: C1_1  and  C2_2 
REMARK    2  A    between atoms: C1_1  and  C3_3 
REMARK    3  A    between atoms: C2_2  and  C4_4 
REMARK    4  A    between atoms: C3_3  and  C5_5 
REMARK    5  A    between atoms: C4_4  and  C6_6 
REMARK    6  A    between atoms: C5_5  and  C7_7 
REMARK    7  A    between atoms: C6_6  and  C8_8 
REMARK    8  A    between atoms: C7_7  and  C9_9 
REMARK    9  A    between atoms: C8_8  and  C10_10 
USER                              x       y       z     vdW  Elec       q    Type
USER                           _______ _______ _______ _____ _____    ______ ____
ROOT
ATOM      1  C1  MOL C   1      27.662  37.536  29.917 -0.60 -0.00    +0.000 C 
ENDROOT
BRANCH   1   2
ATOM      2  C2  MOL C   1      27.571  39.057  29.721 -0.53 -0.00    +0.000 C 
BRANCH   2   3
ATOM      3  C4  MOL C   1      28.498  39.414  28.513 -0.61 -0.00    +0.000 C 
BRANCH   3   4
ATOM      4  C6  MOL C   1      28.578  41.005  28.225 -0.65 -0.00    +0.000 C 
BRANCH   4   5
ATOM      5  C8  MOL C   1      29.756  41.743  28.818 -0.77 +0.00    -0.000 C 
BRANCH   5   6
ATOM      6  C10 MOL C   1      29.776  41.463  30.317 -0.58 +0.01    -0.005 C 
ATOM      7  C12 MOL C   1      30.853  42.125  31.124 -0.70 -0.01    +0.005 C 
ENDBRANCH   5   6
ENDBRANCH   4   5
ENDBRANCH   3   4
ENDBRANCH   2   3
ENDBRANCH   1   2
BRANCH   1   8
ATOM      8  C3  MOL C   1      26.411  36.953  29.147 -0.53 -0.00    +0.000 C 
BRANCH   8   9
ATOM      9  C5  MOL C   1      25.171  36.778  30.218 -0.53 -0.00    +0.000 C 
BRANCH   9  10
ATOM     10  C7  MOL C   1      24.097  37.929  30.239 -0.51 +0.00    -0.000 C 
BRANCH  10  11
ATOM     11  C9  MOL C   1      24.122  38.843  31.513 -0.43 +0.00    -0.005 C 
ATOM     12  C11 MOL C   1      25.456  38.530  32.277 -0.39 -0.00    +0.005 C 
ENDBRANCH  10  11
ENDBRANCH   9  10
ENDBRANCH   8   9
ENDBRANCH   1   8
TORSDOF 9
TER
ENDMDL
MODEL       71
USER    Run = 71
USER    DPF = lac3.dpf
USER  
USER    Estimated Free Energy of Binding    =   -4.44 kcal/mol  [=(1)+(2)+(3)-(4)]
USER    Estimated Inhibition Constant, Ki   =  553.50 uM (micromolar)  [Temperature = 298.15 K]
USER    
USER    (1) Final Intermolecular Energy     =   -6.93 kcal/mol
USER        vdW + Hbond + desolv Energy     =   -6.93 kcal/mol
USER        Electrostatic Energy            =   -0.00 kcal/mol
USER    (2) Final Total Internal Energy     =   -0.49 kcal/mol
USER    (3) Torsional Free Energy           =   +2.68 kcal/mol
USER    (4) Unbound System's Energy         =   -0.29 kcal/mol
USER    
USER    
USER    NEWDPF move PE_ligand.pdbqt
USER    NEWDPF about 3.037000 5.209000 3.149000
USER    NEWDPF tran0 27.153663 37.120086 30.702978
USER    NEWDPF quaternion0 -0.727126 0.099052 0.197092 -0.650100
USER    NEWDPF axisangle0 -0.956936 0.130358 0.259383 -98.901648
USER    NEWDPF quat0 -0.956936 0.130358 0.259383 -98.901648
USER    NEWDPF dihe0 113.12 89.82 180.00 60.35 -157.48 101.73 -162.14 3.47 149.41 
USER  keepresnum = 1 
USER  
REMARK  9 active torsions:
REMARK  status: ('A' for Active; 'I' for Inactive)
REMARK    1  A    between atoms: C1_1  and  C2_2 
REMARK    2  A    between atoms: C1_1  and  C3_3 
REMARK    3  A    between atoms: C2_2  and  C4_4 
REMARK    4  A    between atoms: C3_3  and  C5_5 
REMARK    5  A    between atoms: C4_4  and  C6_6 
REMARK    6  A    between atoms: C5_5  and  C7_7 
REMARK    7  A    between atoms: C6_6  and  C8_8 
REMARK    8  A    between atoms: C7_7  and  C9_9 
REMARK    9  A    between atoms: C8_8  and  C10_10 
USER                              x       y       z     vdW  Elec       q    Type
USER                           _______ _______ _______ _____ _____    ______ ____
ROOT
ATOM      1  C1  MOL C   1      26.584  37.737  29.895 -0.56 -0.00    +0.000 C 
ENDROOT
BRANCH   1   2
ATOM      2  C2  MOL C   1      28.107  37.610  30.049 -0.58 -0.00    +0.000 C 
BRANCH   2   3
ATOM      3  C4  MOL C   1      28.745  38.222  28.759 -0.57 -0.00    +0.000 C 
BRANCH   3   4
ATOM      4  C6  MOL C   1      27.765  39.263  28.000 -0.68 -0.00    +0.000 C 
BRANCH   4   5
ATOM      5  C8  MOL C   1      28.194  40.712  27.987 -0.68 +0.00    -0.000 C 
BRANCH   5   6
ATOM      6  C10 MOL C   1      29.361  40.863  28.957 -0.67 +0.00    -0.005 C 
ATOM      7  C12 MOL C   1      30.121  42.155  28.920 -0.73 -0.01    +0.005 C 
ENDBRANCH   5   6
ENDBRANCH   4   5
ENDBRANCH   3   4
ENDBRANCH   2   3
ENDBRANCH   1   2
BRANCH   1   8
ATOM      8  C3  MOL C   1      26.101  38.446  31.223 -0.46 -0.00    +0.000 C 
BRANCH   8   9
ATOM      9  C5  MOL C   1      24.556  37.970  31.540 -0.45 -0.00    +0.000 C 
BRANCH   9  10
ATOM     10  C7  MOL C   1      24.235  36.444  31.325 -0.50 +0.00    -0.000 C 
BRANCH  10  11
ATOM     11  C9  MOL C   1      23.400  36.112  30.039 -0.60 +0.00    -0.005 C 
ATOM     12  C11 MOL C   1      21.912  36.502  30.345 -0.45 -0.00    +0.005 C 
ENDBRANCH  10  11
ENDBRANCH   9  10
ENDBRANCH   8   9
ENDBRANCH   1   8
TORSDOF 9
TER
ENDMDL
MODEL       72
USER    Run = 72
USER    DPF = lac3.dpf
USER  
USER    Estimated Free Energy of Binding    =   -4.84 kcal/mol  [=(1)+(2)+(3)-(4)]
USER    Estimated Inhibition Constant, Ki   =  283.26 uM (micromolar)  [Temperature = 298.15 K]
USER    
USER    (1) Final Intermolecular Energy     =   -7.02 kcal/mol
USER        vdW + Hbond + desolv Energy     =   -7.02 kcal/mol
USER        Electrostatic Energy            =   +0.00 kcal/mol
USER    (2) Final Total Internal Energy     =   -0.79 kcal/mol
USER    (3) Torsional Free Energy           =   +2.68 kcal/mol
USER    (4) Unbound System's Energy         =   -0.29 kcal/mol
USER    
USER    
USER    NEWDPF move PE_ligand.pdbqt
USER    NEWDPF about 3.037000 5.209000 3.149000
USER    NEWDPF tran0 28.948049 41.169477 29.511986
USER    NEWDPF quaternion0 0.881941 0.446233 0.035802 0.147563
USER    NEWDPF axisangle0 0.891702 0.451173 0.036199 163.028546
USER    NEWDPF quat0 0.891702 0.451173 0.036199 163.028546
USER    NEWDPF dihe0 119.24 -125.64 38.19 22.43 142.84 129.99 96.21 -1.81 60.77 
USER  keepresnum = 1 
USER  
REMARK  9 active torsions:
REMARK  status: ('A' for Active; 'I' for Inactive)
REMARK    1  A    between atoms: C1_1  and  C2_2 
REMARK    2  A    between atoms: C1_1  and  C3_3 
REMARK    3  A    between atoms: C2_2  and  C4_4 
REMARK    4  A    between atoms: C3_3  and  C5_5 
REMARK    5  A    between atoms: C4_4  and  C6_6 
REMARK    6  A    between atoms: C5_5  and  C7_7 
REMARK    7  A    between atoms: C6_6  and  C8_8 
REMARK    8  A    between atoms: C7_7  and  C9_9 
REMARK    9  A    between atoms: C8_8  and  C10_10 
USER                              x       y       z     vdW  Elec       q    Type
USER                           _______ _______ _______ _____ _____    ______ ____
ROOT
ATOM      1  C1  MOL C   1      29.530  40.817  28.567 -0.64 -0.00    +0.000 C 
ENDROOT
BRANCH   1   2
ATOM      2  C2  MOL C   1      29.749  42.122  29.346 -0.67 -0.00    +0.000 C 
BRANCH   2   3
ATOM      3  C4  MOL C   1      30.616  41.762  30.597 -0.59 -0.00    +0.000 C 
BRANCH   3   4
ATOM      4  C6  MOL C   1      29.754  41.093  31.793 -0.63 -0.00    +0.000 C 
BRANCH   4   5
ATOM      5  C8  MOL C   1      28.917  39.887  31.433 -0.51 +0.00    -0.000 C 
BRANCH   5   6
ATOM      6  C10 MOL C   1      27.735  39.836  32.396 -0.40 +0.00    -0.005 C 
ATOM      7  C12 MOL C   1      26.697  38.781  32.152 -0.41 -0.00    +0.005 C 
ENDBRANCH   5   6
ENDBRANCH   4   5
ENDBRANCH   3   4
ENDBRANCH   2   3
ENDBRANCH   1   2
BRANCH   1   8
ATOM      8  C3  MOL C   1      28.058  40.926  28.001 -0.62 -0.00    +0.000 C 
BRANCH   8   9
ATOM      9  C5  MOL C   1      27.495  39.406  27.706 -0.71 -0.00    +0.000 C 
BRANCH   9  10
ATOM     10  C7  MOL C   1      27.186  38.517  28.967 -0.59 +0.00    -0.000 C 
BRANCH  10  11
ATOM     11  C9  MOL C   1      27.530  36.994  28.813 -0.64 +0.00    -0.005 C 
ATOM     12  C11 MOL C   1      29.092  36.884  28.722 -0.60 -0.00    +0.005 C 
ENDBRANCH  10  11
ENDBRANCH   9  10
ENDBRANCH   8   9
ENDBRANCH   1   8
TORSDOF 9
TER
ENDMDL
MODEL       73
USER    Run = 73
USER    DPF = lac3.dpf
USER  
USER    Estimated Free Energy of Binding    =   -3.96 kcal/mol  [=(1)+(2)+(3)-(4)]
USER    Estimated Inhibition Constant, Ki   =    1.25 mM (millimolar)  [Temperature = 298.15 K]
USER    
USER    (1) Final Intermolecular Energy     =   -6.42 kcal/mol
USER        vdW + Hbond + desolv Energy     =   -6.42 kcal/mol
USER        Electrostatic Energy            =   -0.00 kcal/mol
USER    (2) Final Total Internal Energy     =   -0.51 kcal/mol
USER    (3) Torsional Free Energy           =   +2.68 kcal/mol
USER    (4) Unbound System's Energy         =   -0.29 kcal/mol
USER    
USER    
USER    NEWDPF move PE_ligand.pdbqt
USER    NEWDPF about 3.037000 5.209000 3.149000
USER    NEWDPF tran0 28.145855 38.275867 30.353230
USER    NEWDPF quaternion0 -0.823504 -0.390739 -0.114066 -0.395163
USER    NEWDPF axisangle0 -0.896466 -0.425359 -0.124172 -133.447764
USER    NEWDPF quat0 -0.896466 -0.425359 -0.124172 -133.447764
USER    NEWDPF dihe0 -145.98 116.88 -41.21 -13.38 6.77 -167.38 12.25 60.40 -164.18 
USER  keepresnum = 1 
USER  
REMARK  9 active torsions:
REMARK  status: ('A' for Active; 'I' for Inactive)
REMARK    1  A    between atoms: C1_1  and  C2_2 
REMARK    2  A    between atoms: C1_1  and  C3_3 
REMARK    3  A    between atoms: C2_2  and  C4_4 
REMARK    4  A    between atoms: C3_3  and  C5_5 
REMARK    5  A    between atoms: C4_4  and  C6_6 
REMARK    6  A    between atoms: C5_5  and  C7_7 
REMARK    7  A    between atoms: C6_6  and  C8_8 
REMARK    8  A    between atoms: C7_7  and  C9_9 
REMARK    9  A    between atoms: C8_8  and  C10_10 
USER                              x       y       z     vdW  Elec       q    Type
USER                           _______ _______ _______ _____ _____    ______ ____
ROOT
ATOM      1  C1  MOL C   1      28.625  38.442  29.304 -0.62 -0.00    +0.000 C 
ENDROOT
BRANCH   1   2
ATOM      2  C2  MOL C   1      29.000  39.160  30.609 -0.52 -0.00    +0.000 C 
BRANCH   2   3
ATOM      3  C4  MOL C   1      29.374  40.629  30.225 -0.49 -0.00    +0.000 C 
BRANCH   3   4
ATOM      4  C6  MOL C   1      30.198  41.397  31.388 -0.68 -0.00    +0.000 C 
BRANCH   4   5
ATOM      5  C8  MOL C   1      29.384  42.009  32.505 -0.51 +0.00    -0.000 C 
BRANCH   5   6
ATOM      6  C10 MOL C   1      29.961  41.514  33.827 -0.52 +0.00    -0.005 C 
ATOM      7  C12 MOL C   1      29.386  40.251  34.395 -0.38 -0.00    +0.005 C 
ENDBRANCH   5   6
ENDBRANCH   4   5
ENDBRANCH   3   4
ENDBRANCH   2   3
ENDBRANCH   1   2
BRANCH   1   8
ATOM      8  C3  MOL C   1      27.125  38.860  29.030 -0.57 -0.00    +0.000 C 
BRANCH   8   9
ATOM      9  C5  MOL C   1      26.134  37.700  29.653 -0.50 -0.00    +0.000 C 
BRANCH   9  10
ATOM     10  C7  MOL C   1      24.920  38.208  30.518 -0.52 +0.00    -0.000 C 
BRANCH  10  11
ATOM     11  C9  MOL C   1      24.010  37.081  31.118 -0.50 +0.00    -0.005 C 
ATOM     12  C11 MOL C   1      23.651  36.106  29.943 -0.62 -0.00    +0.005 C 
ENDBRANCH  10  11
ENDBRANCH   9  10
ENDBRANCH   8   9
ENDBRANCH   1   8
TORSDOF 9
TER
ENDMDL
MODEL       74
USER    Run = 74
USER    DPF = lac3.dpf
USER  
USER    Estimated Free Energy of Binding    =   -4.15 kcal/mol  [=(1)+(2)+(3)-(4)]
USER    Estimated Inhibition Constant, Ki   =  908.13 uM (micromolar)  [Temperature = 298.15 K]
USER    
USER    (1) Final Intermolecular Energy     =   -6.25 kcal/mol
USER        vdW + Hbond + desolv Energy     =   -6.25 kcal/mol
USER        Electrostatic Energy            =   -0.00 kcal/mol
USER    (2) Final Total Internal Energy     =   -0.87 kcal/mol
USER    (3) Torsional Free Energy           =   +2.68 kcal/mol
USER    (4) Unbound System's Energy         =   -0.29 kcal/mol
USER    
USER    
USER    NEWDPF move PE_ligand.pdbqt
USER    NEWDPF about 3.037000 5.209000 3.149000
USER    NEWDPF tran0 25.415150 37.215149 32.359362
USER    NEWDPF quaternion0 -0.447992 0.633543 0.229895 -0.587431
USER    NEWDPF axisangle0 -0.553572 0.782854 0.284075 -108.050231
USER    NEWDPF quat0 -0.553572 0.782854 0.284075 -108.050231
USER    NEWDPF dihe0 124.59 -118.83 149.04 -3.78 -32.88 -56.91 -43.23 -110.29 -179.86 
USER  keepresnum = 1 
USER  
REMARK  9 active torsions:
REMARK  status: ('A' for Active; 'I' for Inactive)
REMARK    1  A    between atoms: C1_1  and  C2_2 
REMARK    2  A    between atoms: C1_1  and  C3_3 
REMARK    3  A    between atoms: C2_2  and  C4_4 
REMARK    4  A    between atoms: C3_3  and  C5_5 
REMARK    5  A    between atoms: C4_4  and  C6_6 
REMARK    6  A    between atoms: C5_5  and  C7_7 
REMARK    7  A    between atoms: C6_6  and  C8_8 
REMARK    8  A    between atoms: C7_7  and  C9_9 
REMARK    9  A    between atoms: C8_8  and  C10_10 
USER                              x       y       z     vdW  Elec       q    Type
USER                           _______ _______ _______ _____ _____    ______ ____
ROOT
ATOM      1  C1  MOL C   1      25.079  38.300  32.102 -0.40 -0.00    +0.000 C 
ENDROOT
BRANCH   1   2
ATOM      2  C2  MOL C   1      25.608  37.246  31.119 -0.49 -0.00    +0.000 C 
BRANCH   2   3
ATOM      3  C4  MOL C   1      26.088  38.015  29.845 -0.52 -0.00    +0.000 C 
BRANCH   3   4
ATOM      4  C6  MOL C   1      27.442  37.400  29.206 -0.64 -0.00    +0.000 C 
BRANCH   4   5
ATOM      5  C8  MOL C   1      28.619  38.340  29.076 -0.63 +0.00    -0.000 C 
BRANCH   5   6
ATOM      6  C10 MOL C   1      28.091  39.683  28.584 -0.66 +0.00    -0.005 C 
ATOM      7  C12 MOL C   1      29.093  40.779  28.377 -0.70 -0.00    +0.005 C 
ENDBRANCH   5   6
ENDBRANCH   4   5
ENDBRANCH   3   4
ENDBRANCH   2   3
ENDBRANCH   1   2
BRANCH   1   8
ATOM      8  C3  MOL C   1      26.284  38.575  33.088 -0.32 -0.00    +0.000 C 
BRANCH   8   9
ATOM      9  C5  MOL C   1      27.123  39.883  32.540 -0.33 -0.00    +0.000 C 
BRANCH   9  10
ATOM     10  C7  MOL C   1      28.614  39.625  32.103 -0.46 +0.00    -0.000 C 
BRANCH  10  11
ATOM     11  C9  MOL C   1      29.464  40.916  31.836 -0.55 +0.01    -0.005 C 
ATOM     12  C11 MOL C   1      29.808  41.537  33.235 -0.56 -0.00    +0.005 C 
ENDBRANCH  10  11
ENDBRANCH   9  10
ENDBRANCH   8   9
ENDBRANCH   1   8
TORSDOF 9
TER
ENDMDL
MODEL       75
USER    Run = 75
USER    DPF = lac3.dpf
USER  
USER    Estimated Free Energy of Binding    =   -4.29 kcal/mol  [=(1)+(2)+(3)-(4)]
USER    Estimated Inhibition Constant, Ki   =  716.99 uM (micromolar)  [Temperature = 298.15 K]
USER    
USER    (1) Final Intermolecular Energy     =   -6.78 kcal/mol
USER        vdW + Hbond + desolv Energy     =   -6.78 kcal/mol
USER        Electrostatic Energy            =   -0.00 kcal/mol
USER    (2) Final Total Internal Energy     =   -0.48 kcal/mol
USER    (3) Torsional Free Energy           =   +2.68 kcal/mol
USER    (4) Unbound System's Energy         =   -0.29 kcal/mol
USER    
USER    
USER    NEWDPF move PE_ligand.pdbqt
USER    NEWDPF about 3.037000 5.209000 3.149000
USER    NEWDPF tran0 26.752494 38.818759 30.316702
USER    NEWDPF quaternion0 -0.476140 -0.001611 -0.879052 -0.023555
USER    NEWDPF axisangle0 -0.476272 -0.001611 -0.879296 -177.300530
USER    NEWDPF quat0 -0.476272 -0.001611 -0.879296 -177.300530
USER    NEWDPF dihe0 -178.55 69.74 -179.99 -146.50 -90.43 -142.65 178.47 54.05 60.37 
USER  keepresnum = 1 
USER  
REMARK  9 active torsions:
REMARK  status: ('A' for Active; 'I' for Inactive)
REMARK    1  A    between atoms: C1_1  and  C2_2 
REMARK    2  A    between atoms: C1_1  and  C3_3 
REMARK    3  A    between atoms: C2_2  and  C4_4 
REMARK    4  A    between atoms: C3_3  and  C5_5 
REMARK    5  A    between atoms: C4_4  and  C6_6 
REMARK    6  A    between atoms: C5_5  and  C7_7 
REMARK    7  A    between atoms: C6_6  and  C8_8 
REMARK    8  A    between atoms: C7_7  and  C9_9 
REMARK    9  A    between atoms: C8_8  and  C10_10 
USER                              x       y       z     vdW  Elec       q    Type
USER                           _______ _______ _______ _____ _____    ______ ____
ROOT
ATOM      1  C1  MOL C   1      27.485  37.966  30.623 -0.55 -0.00    +0.000 C 
ENDROOT
BRANCH   1   2
ATOM      2  C2  MOL C   1      26.431  38.636  31.516 -0.44 -0.00    +0.000 C 
BRANCH   2   3
ATOM      3  C4  MOL C   1      25.055  37.984  31.160 -0.48 -0.00    +0.000 C 
BRANCH   3   4
ATOM      4  C6  MOL C   1      25.180  36.799  30.065 -0.54 -0.00    +0.000 C 
BRANCH   4   5
ATOM      5  C8  MOL C   1      23.896  36.113  29.658 -0.62 +0.00    -0.000 C 
BRANCH   5   6
ATOM      6  C10 MOL C   1      22.800  36.565  30.618 -0.53 +0.00    -0.005 C 
ATOM      7  C12 MOL C   1      22.070  35.497  31.375 -0.38 -0.00    +0.005 C 
ENDBRANCH   5   6
ENDBRANCH   4   5
ENDBRANCH   3   4
ENDBRANCH   2   3
ENDBRANCH   1   2
BRANCH   1   8
ATOM      8  C3  MOL C   1      28.495  39.124  30.252 -0.57 -0.00    +0.000 C 
BRANCH   8   9
ATOM      9  C5  MOL C   1      28.153  39.652  28.729 -0.66 -0.00    +0.000 C 
BRANCH   9  10
ATOM     10  C7  MOL C   1      28.640  41.104  28.366 -0.66 +0.00    -0.000 C 
BRANCH  10  11
ATOM     11  C9  MOL C   1      30.129  41.423  28.742 -0.64 +0.01    -0.005 C 
ATOM     12  C11 MOL C   1      30.105  42.163  30.125 -0.72 -0.01    +0.005 C 
ENDBRANCH  10  11
ENDBRANCH   9  10
ENDBRANCH   8   9
ENDBRANCH   1   8
TORSDOF 9
TER
ENDMDL
MODEL       76
USER    Run = 76
USER    DPF = lac3.dpf
USER  
USER    Estimated Free Energy of Binding    =   -4.39 kcal/mol  [=(1)+(2)+(3)-(4)]
USER    Estimated Inhibition Constant, Ki   =  610.11 uM (micromolar)  [Temperature = 298.15 K]
USER    
USER    (1) Final Intermolecular Energy     =   -6.82 kcal/mol
USER        vdW + Hbond + desolv Energy     =   -6.82 kcal/mol
USER        Electrostatic Energy            =   -0.00 kcal/mol
USER    (2) Final Total Internal Energy     =   -0.54 kcal/mol
USER    (3) Torsional Free Energy           =   +2.68 kcal/mol
USER    (4) Unbound System's Energy         =   -0.29 kcal/mol
USER    
USER    
USER    NEWDPF move PE_ligand.pdbqt
USER    NEWDPF about 3.037000 5.209000 3.149000
USER    NEWDPF tran0 26.923399 37.721974 29.337137
USER    NEWDPF quaternion0 0.167875 -0.200393 -0.001847 -0.965224
USER    NEWDPF axisangle0 0.642155 -0.766542 -0.007064 -30.309165
USER    NEWDPF quat0 0.642155 -0.766542 -0.007064 -30.309165
USER    NEWDPF dihe0 130.74 174.71 -177.06 -113.58 -166.60 131.23 -178.38 -96.08 21.47 
USER  keepresnum = 1 
USER  
REMARK  9 active torsions:
REMARK  status: ('A' for Active; 'I' for Inactive)
REMARK    1  A    between atoms: C1_1  and  C2_2 
REMARK    2  A    between atoms: C1_1  and  C3_3 
REMARK    3  A    between atoms: C2_2  and  C4_4 
REMARK    4  A    between atoms: C3_3  and  C5_5 
REMARK    5  A    between atoms: C4_4  and  C6_6 
REMARK    6  A    between atoms: C5_5  and  C7_7 
REMARK    7  A    between atoms: C6_6  and  C8_8 
REMARK    8  A    between atoms: C7_7  and  C9_9 
REMARK    9  A    between atoms: C8_8  and  C10_10 
USER                              x       y       z     vdW  Elec       q    Type
USER                           _______ _______ _______ _____ _____    ______ ____
ROOT
ATOM      1  C1  MOL C   1      26.473  38.312  30.235 -0.52 -0.00    +0.000 C 
ENDROOT
BRANCH   1   2
ATOM      2  C2  MOL C   1      27.858  37.651  30.172 -0.58 -0.00    +0.000 C 
BRANCH   2   3
ATOM      3  C4  MOL C   1      28.432  37.937  28.746 -0.63 -0.00    +0.000 C 
BRANCH   3   4
ATOM      4  C6  MOL C   1      27.501  38.937  27.877 -0.67 -0.00    +0.000 C 
BRANCH   4   5
ATOM      5  C8  MOL C   1      27.984  40.362  27.736 -0.65 +0.00    -0.000 C 
BRANCH   5   6
ATOM      6  C10 MOL C   1      29.190  40.540  28.653 -0.67 +0.00    -0.005 C 
ATOM      7  C12 MOL C   1      29.750  41.924  28.789 -0.75 -0.01    +0.005 C 
ENDBRANCH   5   6
ENDBRANCH   4   5
ENDBRANCH   3   4
ENDBRANCH   2   3
ENDBRANCH   1   2
BRANCH   1   8
ATOM      8  C3  MOL C   1      25.448  37.115  30.105 -0.54 -0.00    +0.000 C 
BRANCH   8   9
ATOM      9  C5  MOL C   1      24.715  36.891  31.563 -0.48 -0.00    +0.000 C 
BRANCH   9  10
ATOM     10  C7  MOL C   1      23.678  37.992  32.002 -0.39 +0.00    -0.000 C 
BRANCH  10  11
ATOM     11  C9  MOL C   1      22.250  37.855  31.369 -0.44 +0.00    -0.005 C 
ATOM     12  C11 MOL C   1      22.215  36.483  30.607 -0.49 -0.00    +0.005 C 
ENDBRANCH  10  11
ENDBRANCH   9  10
ENDBRANCH   8   9
ENDBRANCH   1   8
TORSDOF 9
TER
ENDMDL
MODEL       77
USER    Run = 77
USER    DPF = lac3.dpf
USER  
USER    Estimated Free Energy of Binding    =   -4.87 kcal/mol  [=(1)+(2)+(3)-(4)]
USER    Estimated Inhibition Constant, Ki   =  269.22 uM (micromolar)  [Temperature = 298.15 K]
USER    
USER    (1) Final Intermolecular Energy     =   -7.19 kcal/mol
USER        vdW + Hbond + desolv Energy     =   -7.19 kcal/mol
USER        Electrostatic Energy            =   -0.00 kcal/mol
USER    (2) Final Total Internal Energy     =   -0.65 kcal/mol
USER    (3) Torsional Free Energy           =   +2.68 kcal/mol
USER    (4) Unbound System's Energy         =   -0.29 kcal/mol
USER    
USER    
USER    NEWDPF move PE_ligand.pdbqt
USER    NEWDPF about 3.037000 5.209000 3.149000
USER    NEWDPF tran0 28.567627 41.155740 29.259581
USER    NEWDPF quaternion0 -0.885543 -0.346775 0.073162 0.300346
USER    NEWDPF axisangle0 -0.928407 -0.363560 0.076703 145.043222
USER    NEWDPF quat0 -0.928407 -0.363560 0.076703 145.043222
USER    NEWDPF dihe0 -44.48 -83.99 -37.14 -127.07 -66.41 129.81 180.00 -47.59 56.00 
USER  keepresnum = 1 
USER  
REMARK  9 active torsions:
REMARK  status: ('A' for Active; 'I' for Inactive)
REMARK    1  A    between atoms: C1_1  and  C2_2 
REMARK    2  A    between atoms: C1_1  and  C3_3 
REMARK    3  A    between atoms: C2_2  and  C4_4 
REMARK    4  A    between atoms: C3_3  and  C5_5 
REMARK    5  A    between atoms: C4_4  and  C6_6 
REMARK    6  A    between atoms: C5_5  and  C7_7 
REMARK    7  A    between atoms: C6_6  and  C8_8 
REMARK    8  A    between atoms: C7_7  and  C9_9 
REMARK    9  A    between atoms: C8_8  and  C10_10 
USER                              x       y       z     vdW  Elec       q    Type
USER                           _______ _______ _______ _____ _____    ______ ____
ROOT
ATOM      1  C1  MOL C   1      29.123  40.143  29.104 -0.58 -0.00    +0.000 C 
ENDROOT
BRANCH   1   2
ATOM      2  C2  MOL C   1      29.582  41.526  28.619 -0.69 -0.00    +0.000 C 
BRANCH   2   3
ATOM      3  C4  MOL C   1      30.124  42.289  29.873 -0.73 -0.00    +0.000 C 
BRANCH   3   4
ATOM      4  C6  MOL C   1      30.145  41.376  31.209 -0.67 -0.00    +0.000 C 
BRANCH   4   5
ATOM      5  C8  MOL C   1      30.097  42.108  32.531 -0.59 +0.00    -0.000 C 
BRANCH   5   6
ATOM      6  C10 MOL C   1      29.036  41.439  33.397 -0.48 +0.00    -0.005 C 
ATOM      7  C12 MOL C   1      28.487  40.128  32.918 -0.43 -0.00    +0.005 C 
ENDBRANCH   5   6
ENDBRANCH   4   5
ENDBRANCH   3   4
ENDBRANCH   2   3
ENDBRANCH   1   2
BRANCH   1   8
ATOM      8  C3  MOL C   1      27.768  39.875  28.336 -0.68 -0.00    +0.000 C 
BRANCH   8   9
ATOM      9  C5  MOL C   1      27.503  38.249  28.290 -0.63 -0.00    +0.000 C 
BRANCH   9  10
ATOM     10  C7  MOL C   1      27.131  37.562  29.657 -0.60 +0.00    -0.000 C 
BRANCH  10  11
ATOM     11  C9  MOL C   1      25.737  37.968  30.250 -0.53 +0.00    -0.005 C 
ATOM     12  C11 MOL C   1      24.797  36.720  30.113 -0.56 -0.00    +0.005 C 
ENDBRANCH  10  11
ENDBRANCH   9  10
ENDBRANCH   8   9
ENDBRANCH   1   8
TORSDOF 9
TER
ENDMDL
MODEL       78
USER    Run = 78
USER    DPF = lac3.dpf
USER  
USER    Estimated Free Energy of Binding    =   -4.57 kcal/mol  [=(1)+(2)+(3)-(4)]
USER    Estimated Inhibition Constant, Ki   =  448.24 uM (micromolar)  [Temperature = 298.15 K]
USER    
USER    (1) Final Intermolecular Energy     =   -6.79 kcal/mol
USER        vdW + Hbond + desolv Energy     =   -6.80 kcal/mol
USER        Electrostatic Energy            =   +0.00 kcal/mol
USER    (2) Final Total Internal Energy     =   -0.74 kcal/mol
USER    (3) Torsional Free Energy           =   +2.68 kcal/mol
USER    (4) Unbound System's Energy         =   -0.29 kcal/mol
USER    
USER    
USER    NEWDPF move PE_ligand.pdbqt
USER    NEWDPF about 3.037000 5.209000 3.149000
USER    NEWDPF tran0 28.893979 41.138100 29.291560
USER    NEWDPF quaternion0 -0.035518 0.540506 -0.169231 -0.823379
USER    NEWDPF axisangle0 -0.062587 0.952446 -0.298209 -69.151097
USER    NEWDPF quat0 -0.062587 0.952446 -0.298209 -69.151097
USER    NEWDPF dihe0 -16.36 85.59 -88.97 -129.09 125.87 -168.44 43.43 -50.79 6.67 
USER  keepresnum = 1 
USER  
REMARK  9 active torsions:
REMARK  status: ('A' for Active; 'I' for Inactive)
REMARK    1  A    between atoms: C1_1  and  C2_2 
REMARK    2  A    between atoms: C1_1  and  C3_3 
REMARK    3  A    between atoms: C2_2  and  C4_4 
REMARK    4  A    between atoms: C3_3  and  C5_5 
REMARK    5  A    between atoms: C4_4  and  C6_6 
REMARK    6  A    between atoms: C5_5  and  C7_7 
REMARK    7  A    between atoms: C6_6  and  C8_8 
REMARK    8  A    between atoms: C7_7  and  C9_9 
REMARK    9  A    between atoms: C8_8  and  C10_10 
USER                              x       y       z     vdW  Elec       q    Type
USER                           _______ _______ _______ _____ _____    ______ ____
ROOT
ATOM      1  C1  MOL C   1      29.750  41.903  29.489 -0.67 -0.00    +0.000 C 
ENDROOT
BRANCH   1   2
ATOM      2  C2  MOL C   1      29.699  40.851  28.372 -0.60 -0.00    +0.000 C 
BRANCH   2   3
ATOM      3  C4  MOL C   1      28.188  40.562  28.091 -0.69 -0.00    +0.000 C 
BRANCH   3   4
ATOM      4  C6  MOL C   1      27.844  38.982  28.033 -0.65 -0.00    +0.000 C 
BRANCH   4   5
ATOM      5  C8  MOL C   1      28.595  38.089  28.995 -0.63 +0.00    -0.000 C 
BRANCH   5   6
ATOM      6  C10 MOL C   1      27.919  38.197  30.357 -0.57 +0.00    -0.005 C 
ATOM      7  C12 MOL C   1      26.422  38.267  30.376 -0.51 -0.00    +0.005 C 
ENDBRANCH   5   6
ENDBRANCH   4   5
ENDBRANCH   3   4
ENDBRANCH   2   3
ENDBRANCH   1   2
BRANCH   1   8
ATOM      8  C3  MOL C   1      29.765  41.067  30.831 -0.56 -0.00    +0.000 C 
BRANCH   8   9
ATOM      9  C5  MOL C   1      30.494  41.968  32.003 -0.62 -0.00    +0.000 C 
BRANCH   9  10
ATOM     10  C7  MOL C   1      29.744  42.058  33.384 -0.48 +0.00    -0.000 C 
BRANCH  10  11
ATOM     11  C9  MOL C   1      29.624  40.706  34.169 -0.41 +0.01    -0.005 C 
ATOM     12  C11 MOL C   1      28.419  39.918  33.546 -0.40 -0.00    +0.005 C 
ENDBRANCH  10  11
ENDBRANCH   9  10
ENDBRANCH   8   9
ENDBRANCH   1   8
TORSDOF 9
TER
ENDMDL
MODEL       79
USER    Run = 79
USER    DPF = lac3.dpf
USER  
USER    Estimated Free Energy of Binding    =   -4.21 kcal/mol  [=(1)+(2)+(3)-(4)]
USER    Estimated Inhibition Constant, Ki   =  820.39 uM (micromolar)  [Temperature = 298.15 K]
USER    
USER    (1) Final Intermolecular Energy     =   -6.54 kcal/mol
USER        vdW + Hbond + desolv Energy     =   -6.54 kcal/mol
USER        Electrostatic Energy            =   -0.00 kcal/mol
USER    (2) Final Total Internal Energy     =   -0.64 kcal/mol
USER    (3) Torsional Free Energy           =   +2.68 kcal/mol
USER    (4) Unbound System's Energy         =   -0.29 kcal/mol
USER    
USER    
USER    NEWDPF move PE_ligand.pdbqt
USER    NEWDPF about 3.037000 5.209000 3.149000
USER    NEWDPF tran0 27.263976 38.523221 31.134369
USER    NEWDPF quaternion0 0.154935 -0.549897 0.195447 0.797126
USER    NEWDPF axisangle0 0.256594 -0.910706 0.323688 74.287017
USER    NEWDPF quat0 0.256594 -0.910706 0.323688 74.287017
USER    NEWDPF dihe0 176.49 135.50 163.22 77.19 -155.35 16.92 133.34 -14.45 114.30 
USER  keepresnum = 1 
USER  
REMARK  9 active torsions:
REMARK  status: ('A' for Active; 'I' for Inactive)
REMARK    1  A    between atoms: C1_1  and  C2_2 
REMARK    2  A    between atoms: C1_1  and  C3_3 
REMARK    3  A    between atoms: C2_2  and  C4_4 
REMARK    4  A    between atoms: C3_3  and  C5_5 
REMARK    5  A    between atoms: C4_4  and  C6_6 
REMARK    6  A    between atoms: C5_5  and  C7_7 
REMARK    7  A    between atoms: C6_6  and  C8_8 
REMARK    8  A    between atoms: C7_7  and  C9_9 
REMARK    9  A    between atoms: C8_8  and  C10_10 
USER                              x       y       z     vdW  Elec       q    Type
USER                           _______ _______ _______ _____ _____    ______ ____
ROOT
ATOM      1  C1  MOL C   1      28.064  39.368  31.082 -0.49 -0.00    +0.000 C 
ENDROOT
BRANCH   1   2
ATOM      2  C2  MOL C   1      28.021  38.090  30.231 -0.59 -0.00    +0.000 C 
BRANCH   2   3
ATOM      3  C4  MOL C   1      28.282  38.522  28.751 -0.62 -0.00    +0.000 C 
BRANCH   3   4
ATOM      4  C6  MOL C   1      27.496  39.876  28.338 -0.65 -0.00    +0.000 C 
BRANCH   4   5
ATOM      5  C8  MOL C   1      28.348  41.078  27.998 -0.62 +0.00    -0.000 C 
BRANCH   5   6
ATOM      6  C10 MOL C   1      29.663  40.949  28.760 -0.64 +0.00    -0.005 C 
ATOM      7  C12 MOL C   1      30.093  42.123  29.588 -0.73 -0.01    +0.005 C 
ENDBRANCH   5   6
ENDBRANCH   4   5
ENDBRANCH   3   4
ENDBRANCH   2   3
ENDBRANCH   1   2
BRANCH   1   8
ATOM      8  C3  MOL C   1      28.249  38.859  32.567 -0.39 -0.00    +0.000 C 
BRANCH   8   9
ATOM      9  C5  MOL C   1      28.023  40.130  33.590 -0.38 -0.00    +0.000 C 
BRANCH   9  10
ATOM     10  C7  MOL C   1      28.684  41.495  33.167 -0.44 +0.00    -0.000 C 
BRANCH  10  11
ATOM     11  C9  MOL C   1      30.159  41.702  33.657 -0.53 +0.00    -0.005 C 
ATOM     12  C11 MOL C   1      30.303  40.940  35.020 -0.46 -0.00    +0.005 C 
ENDBRANCH  10  11
ENDBRANCH   9  10
ENDBRANCH   8   9
ENDBRANCH   1   8
TORSDOF 9
TER
ENDMDL
MODEL       80
USER    Run = 80
USER    DPF = lac3.dpf
USER  
USER    Estimated Free Energy of Binding    =   -4.42 kcal/mol  [=(1)+(2)+(3)-(4)]
USER    Estimated Inhibition Constant, Ki   =  573.78 uM (micromolar)  [Temperature = 298.15 K]
USER    
USER    (1) Final Intermolecular Energy     =   -6.67 kcal/mol
USER        vdW + Hbond + desolv Energy     =   -6.67 kcal/mol
USER        Electrostatic Energy            =   -0.00 kcal/mol
USER    (2) Final Total Internal Energy     =   -0.72 kcal/mol
USER    (3) Torsional Free Energy           =   +2.68 kcal/mol
USER    (4) Unbound System's Energy         =   -0.29 kcal/mol
USER    
USER    
USER    NEWDPF move PE_ligand.pdbqt
USER    NEWDPF about 3.037000 5.209000 3.149000
USER    NEWDPF tran0 26.889532 38.849887 30.684374
USER    NEWDPF quaternion0 -0.544473 0.355380 -0.723800 0.231014
USER    NEWDPF axisangle0 -0.559610 0.365260 -0.743923 153.286503
USER    NEWDPF quat0 -0.559610 0.365260 -0.743923 153.286503
USER    NEWDPF dihe0 37.12 -168.46 120.12 -132.02 -68.44 120.36 15.82 4.26 -56.04 
USER  keepresnum = 1 
USER  
REMARK  9 active torsions:
REMARK  status: ('A' for Active; 'I' for Inactive)
REMARK    1  A    between atoms: C1_1  and  C2_2 
REMARK    2  A    between atoms: C1_1  and  C3_3 
REMARK    3  A    between atoms: C2_2  and  C4_4 
REMARK    4  A    between atoms: C3_3  and  C5_5 
REMARK    5  A    between atoms: C4_4  and  C6_6 
REMARK    6  A    between atoms: C5_5  and  C7_7 
REMARK    7  A    between atoms: C6_6  and  C8_8 
REMARK    8  A    between atoms: C7_7  and  C9_9 
REMARK    9  A    between atoms: C8_8  and  C10_10 
USER                              x       y       z     vdW  Elec       q    Type
USER                           _______ _______ _______ _____ _____    ______ ____
ROOT
ATOM      1  C1  MOL C   1      26.763  37.712  30.467 -0.54 -0.00    +0.000 C 
ENDROOT
BRANCH   1   2
ATOM      2  C2  MOL C   1      26.667  38.402  31.836 -0.43 -0.00    +0.000 C 
BRANCH   2   3
ATOM      3  C4  MOL C   1      27.732  39.547  31.842 -0.43 -0.00    +0.000 C 
BRANCH   3   4
ATOM      4  C6  MOL C   1      28.138  40.027  33.334 -0.40 -0.00    +0.000 C 
BRANCH   4   5
ATOM      5  C8  MOL C   1      28.728  41.412  33.464 -0.45 +0.00    -0.000 C 
BRANCH   5   6
ATOM      6  C10 MOL C   1      30.125  41.384  32.854 -0.56 +0.01    -0.005 C 
ATOM      7  C12 MOL C   1      30.250  41.761  31.408 -0.72 -0.01    +0.005 C 
ENDBRANCH   5   6
ENDBRANCH   4   5
ENDBRANCH   3   4
ENDBRANCH   2   3
ENDBRANCH   1   2
BRANCH   1   8
ATOM      8  C3  MOL C   1      28.253  37.954  29.997 -0.60 -0.00    +0.000 C 
BRANCH   8   9
ATOM      9  C5  MOL C   1      28.284  37.995  28.350 -0.58 -0.00    +0.000 C 
BRANCH   9  10
ATOM     10  C7  MOL C   1      27.429  39.124  27.663 -0.67 +0.00    -0.000 C 
BRANCH  10  11
ATOM     11  C9  MOL C   1      27.865  40.592  28.000 -0.67 +0.00    -0.005 C 
ATOM     12  C11 MOL C   1      29.382  40.541  28.398 -0.63 -0.00    +0.005 C 
ENDBRANCH  10  11
ENDBRANCH   9  10
ENDBRANCH   8   9
ENDBRANCH   1   8
TORSDOF 9
TER
ENDMDL
MODEL       81
USER    Run = 81
USER    DPF = lac3.dpf
USER  
USER    Estimated Free Energy of Binding    =   -4.49 kcal/mol  [=(1)+(2)+(3)-(4)]
USER    Estimated Inhibition Constant, Ki   =  513.53 uM (micromolar)  [Temperature = 298.15 K]
USER    
USER    (1) Final Intermolecular Energy     =   -6.86 kcal/mol
USER        vdW + Hbond + desolv Energy     =   -6.86 kcal/mol
USER        Electrostatic Energy            =   -0.00 kcal/mol
USER    (2) Final Total Internal Energy     =   -0.60 kcal/mol
USER    (3) Torsional Free Energy           =   +2.68 kcal/mol
USER    (4) Unbound System's Energy         =   -0.29 kcal/mol
USER    
USER    
USER    NEWDPF move PE_ligand.pdbqt
USER    NEWDPF about 3.037000 5.209000 3.149000
USER    NEWDPF tran0 27.499284 38.600180 29.166467
USER    NEWDPF quaternion0 0.706770 0.417316 -0.130019 -0.556254
USER    NEWDPF axisangle0 0.850492 0.502178 -0.156459 -112.405708
USER    NEWDPF quat0 0.850492 0.502178 -0.156459 -112.405708
USER    NEWDPF dihe0 150.08 -148.03 180.00 19.34 -5.09 -148.30 -50.36 30.91 29.31 
USER  keepresnum = 1 
USER  
REMARK  9 active torsions:
REMARK  status: ('A' for Active; 'I' for Inactive)
REMARK    1  A    between atoms: C1_1  and  C2_2 
REMARK    2  A    between atoms: C1_1  and  C3_3 
REMARK    3  A    between atoms: C2_2  and  C4_4 
REMARK    4  A    between atoms: C3_3  and  C5_5 
REMARK    5  A    between atoms: C4_4  and  C6_6 
REMARK    6  A    between atoms: C5_5  and  C7_7 
REMARK    7  A    between atoms: C6_6  and  C8_8 
REMARK    8  A    between atoms: C7_7  and  C9_9 
REMARK    9  A    between atoms: C8_8  and  C10_10 
USER                              x       y       z     vdW  Elec       q    Type
USER                           _______ _______ _______ _____ _____    ______ ____
ROOT
ATOM      1  C1  MOL C   1      28.289  37.844  29.568 -0.63 -0.00    +0.000 C 
ENDROOT
BRANCH   1   2
ATOM      2  C2  MOL C   1      28.446  38.782  28.363 -0.49 -0.00    +0.000 C 
BRANCH   2   3
ATOM      3  C4  MOL C   1      28.004  40.205  28.836 -0.47 -0.00    +0.000 C 
BRANCH   3   4
ATOM      4  C6  MOL C   1      29.027  41.373  28.377 -0.67 -0.00    +0.000 C 
BRANCH   4   5
ATOM      5  C8  MOL C   1      30.093  41.771  29.373 -0.72 +0.00    -0.000 C 
BRANCH   5   6
ATOM      6  C10 MOL C   1      29.750  41.120  30.709 -0.55 +0.01    -0.005 C 
ATOM      7  C12 MOL C   1      30.262  41.790  31.949 -0.66 -0.01    +0.005 C 
ENDBRANCH   5   6
ENDBRANCH   4   5
ENDBRANCH   3   4
ENDBRANCH   2   3
ENDBRANCH   1   2
BRANCH   1   8
ATOM      8  C3  MOL C   1      27.104  36.874  29.173 -0.60 -0.00    +0.000 C 
BRANCH   8   9
ATOM      9  C5  MOL C   1      25.943  36.963  30.339 -0.47 -0.00    +0.000 C 
BRANCH   9  10
ATOM     10  C7  MOL C   1      24.467  36.662  29.880 -0.58 +0.00    -0.000 C 
BRANCH  10  11
ATOM     11  C9  MOL C   1      23.356  37.481  30.626 -0.53 +0.00    -0.005 C 
ATOM     12  C11 MOL C   1      23.843  38.971  30.681 -0.48 -0.00    +0.005 C 
ENDBRANCH  10  11
ENDBRANCH   9  10
ENDBRANCH   8   9
ENDBRANCH   1   8
TORSDOF 9
TER
ENDMDL
MODEL       82
USER    Run = 82
USER    DPF = lac3.dpf
USER  
USER    Estimated Free Energy of Binding    =   -4.36 kcal/mol  [=(1)+(2)+(3)-(4)]
USER    Estimated Inhibition Constant, Ki   =  632.87 uM (micromolar)  [Temperature = 298.15 K]
USER    
USER    (1) Final Intermolecular Energy     =   -6.71 kcal/mol
USER        vdW + Hbond + desolv Energy     =   -6.71 kcal/mol
USER        Electrostatic Energy            =   -0.00 kcal/mol
USER    (2) Final Total Internal Energy     =   -0.63 kcal/mol
USER    (3) Torsional Free Energy           =   +2.68 kcal/mol
USER    (4) Unbound System's Energy         =   -0.29 kcal/mol
USER    
USER    
USER    NEWDPF move PE_ligand.pdbqt
USER    NEWDPF about 3.037000 5.209000 3.149000
USER    NEWDPF tran0 26.304606 37.657597 30.194183
USER    NEWDPF quaternion0 0.266973 -0.363799 0.111545 0.885400
USER    NEWDPF axisangle0 0.574347 -0.782650 0.239969 55.398345
USER    NEWDPF quat0 0.574347 -0.782650 0.239969 55.398345
USER    NEWDPF dihe0 130.02 179.94 -143.02 57.33 179.93 170.98 140.09 44.16 123.95 
USER  keepresnum = 1 
USER  
REMARK  9 active torsions:
REMARK  status: ('A' for Active; 'I' for Inactive)
REMARK    1  A    between atoms: C1_1  and  C2_2 
REMARK    2  A    between atoms: C1_1  and  C3_3 
REMARK    3  A    between atoms: C2_2  and  C4_4 
REMARK    4  A    between atoms: C3_3  and  C5_5 
REMARK    5  A    between atoms: C4_4  and  C6_6 
REMARK    6  A    between atoms: C5_5  and  C7_7 
REMARK    7  A    between atoms: C6_6  and  C8_8 
REMARK    8  A    between atoms: C7_7  and  C9_9 
REMARK    9  A    between atoms: C8_8  and  C10_10 
USER                              x       y       z     vdW  Elec       q    Type
USER                           _______ _______ _______ _____ _____    ______ ____
ROOT
ATOM      1  C1  MOL C   1      26.764  38.728  30.222 -0.47 -0.00    +0.000 C 
ENDROOT
BRANCH   1   2
ATOM      2  C2  MOL C   1      27.417  37.463  29.646 -0.61 -0.00    +0.000 C 
BRANCH   2   3
ATOM      3  C4  MOL C   1      28.222  37.905  28.380 -0.61 -0.00    +0.000 C 
BRANCH   3   4
ATOM      4  C6  MOL C   1      27.502  39.098  27.557 -0.69 -0.00    +0.000 C 
BRANCH   4   5
ATOM      5  C8  MOL C   1      27.875  40.511  27.945 -0.68 +0.00    -0.000 C 
BRANCH   5   6
ATOM      6  C10 MOL C   1      29.276  40.476  28.545 -0.64 +0.00    -0.005 C 
ATOM      7  C12 MOL C   1      29.805  41.754  29.124 -0.74 -0.01    +0.005 C 
ENDBRANCH   5   6
ENDBRANCH   4   5
ENDBRANCH   3   4
ENDBRANCH   2   3
ENDBRANCH   1   2
BRANCH   1   8
ATOM      8  C3  MOL C   1      26.588  38.426  31.764 -0.44 -0.00    +0.000 C 
BRANCH   8   9
ATOM      9  C5  MOL C   1      24.981  38.263  32.087 -0.40 -0.00    +0.000 C 
BRANCH   9  10
ATOM     10  C7  MOL C   1      24.489  36.819  32.478 -0.39 +0.00    -0.000 C 
BRANCH  10  11
ATOM     11  C9  MOL C   1      23.630  36.089  31.388 -0.47 +0.00    -0.005 C 
ATOM     12  C11 MOL C   1      23.796  36.898  30.054 -0.58 -0.00    +0.005 C 
ENDBRANCH  10  11
ENDBRANCH   9  10
ENDBRANCH   8   9
ENDBRANCH   1   8
TORSDOF 9
TER
ENDMDL
MODEL       83
USER    Run = 83
USER    DPF = lac3.dpf
USER  
USER    Estimated Free Energy of Binding    =   -3.98 kcal/mol  [=(1)+(2)+(3)-(4)]
USER    Estimated Inhibition Constant, Ki   =    1.21 mM (millimolar)  [Temperature = 298.15 K]
USER    
USER    (1) Final Intermolecular Energy     =   -6.44 kcal/mol
USER        vdW + Hbond + desolv Energy     =   -6.44 kcal/mol
USER        Electrostatic Energy            =   -0.00 kcal/mol
USER    (2) Final Total Internal Energy     =   -0.51 kcal/mol
USER    (3) Torsional Free Energy           =   +2.68 kcal/mol
USER    (4) Unbound System's Energy         =   -0.29 kcal/mol
USER    
USER    
USER    NEWDPF move PE_ligand.pdbqt
USER    NEWDPF about 3.037000 5.209000 3.149000
USER    NEWDPF tran0 26.705145 37.532744 30.337162
USER    NEWDPF quaternion0 0.791223 -0.045839 -0.565409 0.228426
USER    NEWDPF axisangle0 0.812710 -0.047084 -0.580764 153.591151
USER    NEWDPF quat0 0.812710 -0.047084 -0.580764 153.591151
USER    NEWDPF dihe0 -135.91 127.34 30.42 101.55 89.12 174.09 30.55 -92.56 3.45 
USER  keepresnum = 1 
USER  
REMARK  9 active torsions:
REMARK  status: ('A' for Active; 'I' for Inactive)
REMARK    1  A    between atoms: C1_1  and  C2_2 
REMARK    2  A    between atoms: C1_1  and  C3_3 
REMARK    3  A    between atoms: C2_2  and  C4_4 
REMARK    4  A    between atoms: C3_3  and  C5_5 
REMARK    5  A    between atoms: C4_4  and  C6_6 
REMARK    6  A    between atoms: C5_5  and  C7_7 
REMARK    7  A    between atoms: C6_6  and  C8_8 
REMARK    8  A    between atoms: C7_7  and  C9_9 
REMARK    9  A    between atoms: C8_8  and  C10_10 
USER                              x       y       z     vdW  Elec       q    Type
USER                           _______ _______ _______ _____ _____    ______ ____
ROOT
ATOM      1  C1  MOL C   1      25.713  37.044  29.971 -0.53 -0.00    +0.000 C 
ENDROOT
BRANCH   1   2
ATOM      2  C2  MOL C   1      26.746  37.782  29.107 -0.55 -0.00    +0.000 C 
BRANCH   2   3
ATOM      3  C4  MOL C   1      28.106  37.724  29.879 -0.61 -0.00    +0.000 C 
BRANCH   3   4
ATOM      4  C6  MOL C   1      28.998  39.061  29.691 -0.51 -0.00    +0.000 C 
BRANCH   4   5
ATOM      5  C8  MOL C   1      28.417  40.148  28.816 -0.64 +0.00    -0.000 C 
BRANCH   5   6
ATOM      6  C10 MOL C   1      29.561  41.055  28.376 -0.65 +0.00    -0.005 C 
ATOM      7  C12 MOL C   1      30.031  42.089  29.355 -0.72 -0.01    +0.005 C 
ENDBRANCH   5   6
ENDBRANCH   4   5
ENDBRANCH   3   4
ENDBRANCH   2   3
ENDBRANCH   1   2
BRANCH   1   8
ATOM      8  C3  MOL C   1      25.168  38.139  30.973 -0.49 -0.00    +0.000 C 
BRANCH   8   9
ATOM      9  C5  MOL C   1      23.590  38.445  30.610 -0.51 -0.00    +0.000 C 
BRANCH   9  10
ATOM     10  C7  MOL C   1      22.530  38.042  31.702 -0.42 +0.00    -0.000 C 
BRANCH  10  11
ATOM     11  C9  MOL C   1      22.434  36.506  32.004 -0.35 +0.00    -0.005 C 
ATOM     12  C11 MOL C   1      22.577  35.757  30.633 -0.44 -0.00    +0.005 C 
ENDBRANCH  10  11
ENDBRANCH   9  10
ENDBRANCH   8   9
ENDBRANCH   1   8
TORSDOF 9
TER
ENDMDL
MODEL       84
USER    Run = 84
USER    DPF = lac3.dpf
USER  
USER    Estimated Free Energy of Binding    =   -4.82 kcal/mol  [=(1)+(2)+(3)-(4)]
USER    Estimated Inhibition Constant, Ki   =  292.89 uM (micromolar)  [Temperature = 298.15 K]
USER    
USER    (1) Final Intermolecular Energy     =   -7.24 kcal/mol
USER        vdW + Hbond + desolv Energy     =   -7.24 kcal/mol
USER        Electrostatic Energy            =   +0.00 kcal/mol
USER    (2) Final Total Internal Energy     =   -0.55 kcal/mol
USER    (3) Torsional Free Energy           =   +2.68 kcal/mol
USER    (4) Unbound System's Energy         =   -0.29 kcal/mol
USER    
USER    
USER    NEWDPF move PE_ligand.pdbqt
USER    NEWDPF about 3.037000 5.209000 3.149000
USER    NEWDPF tran0 28.574421 39.325571 28.240344
USER    NEWDPF quaternion0 0.426272 0.180758 -0.608497 0.644476
USER    NEWDPF axisangle0 0.557492 0.236401 -0.795812 99.747135
USER    NEWDPF quat0 0.557492 0.236401 -0.795812 99.747135
USER    NEWDPF dihe0 142.98 -180.00 178.36 -21.96 -103.09 156.42 -0.72 -61.78 -76.51 
USER  keepresnum = 1 
USER  
REMARK  9 active torsions:
REMARK  status: ('A' for Active; 'I' for Inactive)
REMARK    1  A    between atoms: C1_1  and  C2_2 
REMARK    2  A    between atoms: C1_1  and  C3_3 
REMARK    3  A    between atoms: C2_2  and  C4_4 
REMARK    4  A    between atoms: C3_3  and  C5_5 
REMARK    5  A    between atoms: C4_4  and  C6_6 
REMARK    6  A    between atoms: C5_5  and  C7_7 
REMARK    7  A    between atoms: C6_6  and  C8_8 
REMARK    8  A    between atoms: C7_7  and  C9_9 
REMARK    9  A    between atoms: C8_8  and  C10_10 
USER                              x       y       z     vdW  Elec       q    Type
USER                           _______ _______ _______ _____ _____    ______ ____
ROOT
ATOM      1  C1  MOL C   1      27.430  39.382  28.030 -0.68 -0.00    +0.000 C 
ENDROOT
BRANCH   1   2
ATOM      2  C2  MOL C   1      28.426  40.550  28.008 -0.68 -0.00    +0.000 C 
BRANCH   2   3
ATOM      3  C4  MOL C   1      29.111  40.589  29.413 -0.57 -0.00    +0.000 C 
BRANCH   3   4
ATOM      4  C6  MOL C   1      30.126  41.837  29.590 -0.72 -0.00    +0.000 C 
BRANCH   4   5
ATOM      5  C8  MOL C   1      30.608  42.127  30.993 -0.74 +0.00    -0.000 C 
BRANCH   5   6
ATOM      6  C10 MOL C   1      29.746  41.321  31.958 -0.63 +0.01    -0.005 C 
ATOM      7  C12 MOL C   1      29.738  41.752  33.394 -0.54 -0.00    +0.005 C 
ENDBRANCH   5   6
ENDBRANCH   4   5
ENDBRANCH   3   4
ENDBRANCH   2   3
ENDBRANCH   1   2
BRANCH   1   8
ATOM      8  C3  MOL C   1      27.446  38.866  29.525 -0.55 -0.00    +0.000 C 
BRANCH   8   9
ATOM      9  C5  MOL C   1      25.917  38.411  29.939 -0.48 -0.00    +0.000 C 
BRANCH   9  10
ATOM     10  C7  MOL C   1      25.587  36.877  29.818 -0.53 +0.00    -0.000 C 
BRANCH  10  11
ATOM     11  C9  MOL C   1      24.193  36.446  30.392 -0.59 +0.00    -0.005 C 
ATOM     12  C11 MOL C   1      23.366  37.759  30.623 -0.53 -0.00    +0.005 C 
ENDBRANCH  10  11
ENDBRANCH   9  10
ENDBRANCH   8   9
ENDBRANCH   1   8
TORSDOF 9
TER
ENDMDL
MODEL       85
USER    Run = 85
USER    DPF = lac3.dpf
USER  
USER    Estimated Free Energy of Binding    =   -4.80 kcal/mol  [=(1)+(2)+(3)-(4)]
USER    Estimated Inhibition Constant, Ki   =  301.77 uM (micromolar)  [Temperature = 298.15 K]
USER    
USER    (1) Final Intermolecular Energy     =   -6.97 kcal/mol
USER        vdW + Hbond + desolv Energy     =   -6.97 kcal/mol
USER        Electrostatic Energy            =   -0.00 kcal/mol
USER    (2) Final Total Internal Energy     =   -0.81 kcal/mol
USER    (3) Torsional Free Energy           =   +2.68 kcal/mol
USER    (4) Unbound System's Energy         =   -0.29 kcal/mol
USER    
USER    
USER    NEWDPF move PE_ligand.pdbqt
USER    NEWDPF about 3.037000 5.209000 3.149000
USER    NEWDPF tran0 27.405114 38.891978 29.050390
USER    NEWDPF quaternion0 -0.567548 -0.739516 0.275530 0.234710
USER    NEWDPF axisangle0 -0.583857 -0.760768 0.283448 152.850962
USER    NEWDPF quat0 -0.583857 -0.760768 0.283448 152.850962
USER    NEWDPF dihe0 -60.06 175.36 -74.76 23.42 -61.14 156.87 -179.90 72.38 85.00 
USER  keepresnum = 1 
USER  
REMARK  9 active torsions:
REMARK  status: ('A' for Active; 'I' for Inactive)
REMARK    1  A    between atoms: C1_1  and  C2_2 
REMARK    2  A    between atoms: C1_1  and  C3_3 
REMARK    3  A    between atoms: C2_2  and  C4_4 
REMARK    4  A    between atoms: C3_3  and  C5_5 
REMARK    5  A    between atoms: C4_4  and  C6_6 
REMARK    6  A    between atoms: C5_5  and  C7_7 
REMARK    7  A    between atoms: C6_6  and  C8_8 
REMARK    8  A    between atoms: C7_7  and  C9_9 
REMARK    9  A    between atoms: C8_8  and  C10_10 
USER                              x       y       z     vdW  Elec       q    Type
USER                           _______ _______ _______ _____ _____    ______ ____
ROOT
ATOM      1  C1  MOL C   1      28.308  38.482  28.438 -0.57 -0.00    +0.000 C 
ENDROOT
BRANCH   1   2
ATOM      2  C2  MOL C   1      27.267  39.507  27.965 -0.67 -0.00    +0.000 C 
BRANCH   2   3
ATOM      3  C4  MOL C   1      27.964  40.907  27.997 -0.61 -0.00    +0.000 C 
BRANCH   3   4
ATOM      4  C6  MOL C   1      29.534  40.825  28.382 -0.64 -0.00    +0.000 C 
BRANCH   4   5
ATOM      5  C8  MOL C   1      30.121  42.022  29.094 -0.74 +0.00    -0.000 C 
BRANCH   5   6
ATOM      6  C10 MOL C   1      30.059  41.751  30.594 -0.68 +0.01    -0.005 C 
ATOM      7  C12 MOL C   1      29.377  40.490  31.034 -0.52 -0.01    +0.005 C 
ENDBRANCH   5   6
ENDBRANCH   4   5
ENDBRANCH   3   4
ENDBRANCH   2   3
ENDBRANCH   1   2
BRANCH   1   8
ATOM      8  C3  MOL C   1      27.482  37.159  28.698 -0.64 -0.00    +0.000 C 
BRANCH   8   9
ATOM      9  C5  MOL C   1      26.801  37.249  30.195 -0.54 -0.00    +0.000 C 
BRANCH   9  10
ATOM     10  C7  MOL C   1      25.302  37.726  30.254 -0.54 +0.00    -0.000 C 
BRANCH  10  11
ATOM     11  C9  MOL C   1      24.943  38.655  31.466 -0.44 +0.00    -0.005 C 
ATOM     12  C11 MOL C   1      26.292  39.028  32.174 -0.38 -0.00    +0.005 C 
ENDBRANCH  10  11
ENDBRANCH   9  10
ENDBRANCH   8   9
ENDBRANCH   1   8
TORSDOF 9
TER
ENDMDL
MODEL       86
USER    Run = 86
USER    DPF = lac3.dpf
USER  
USER    Estimated Free Energy of Binding    =   -4.56 kcal/mol  [=(1)+(2)+(3)-(4)]
USER    Estimated Inhibition Constant, Ki   =  456.00 uM (micromolar)  [Temperature = 298.15 K]
USER    
USER    (1) Final Intermolecular Energy     =   -6.94 kcal/mol
USER        vdW + Hbond + desolv Energy     =   -6.94 kcal/mol
USER        Electrostatic Energy            =   +0.00 kcal/mol
USER    (2) Final Total Internal Energy     =   -0.59 kcal/mol
USER    (3) Torsional Free Energy           =   +2.68 kcal/mol
USER    (4) Unbound System's Energy         =   -0.29 kcal/mol
USER    
USER    
USER    NEWDPF move PE_ligand.pdbqt
USER    NEWDPF about 3.037000 5.209000 3.149000
USER    NEWDPF tran0 28.486174 39.063141 29.112696
USER    NEWDPF quaternion0 -0.577544 0.770224 0.215256 0.163898
USER    NEWDPF axisangle0 -0.585461 0.780782 0.218207 161.133558
USER    NEWDPF quat0 -0.585461 0.780782 0.218207 161.133558
USER    NEWDPF dihe0 -149.87 127.56 -66.92 -74.37 180.00 -28.79 173.84 67.25 99.43 
USER  keepresnum = 1 
USER  
REMARK  9 active torsions:
REMARK  status: ('A' for Active; 'I' for Inactive)
REMARK    1  A    between atoms: C1_1  and  C2_2 
REMARK    2  A    between atoms: C1_1  and  C3_3 
REMARK    3  A    between atoms: C2_2  and  C4_4 
REMARK    4  A    between atoms: C3_3  and  C5_5 
REMARK    5  A    between atoms: C4_4  and  C6_6 
REMARK    6  A    between atoms: C5_5  and  C7_7 
REMARK    7  A    between atoms: C6_6  and  C8_8 
REMARK    8  A    between atoms: C7_7  and  C9_9 
REMARK    9  A    between atoms: C8_8  and  C10_10 
USER                              x       y       z     vdW  Elec       q    Type
USER                           _______ _______ _______ _____ _____    ______ ____
ROOT
ATOM      1  C1  MOL C   1      27.418  39.486  28.921 -0.53 -0.00    +0.000 C 
ENDROOT
BRANCH   1   2
ATOM      2  C2  MOL C   1      27.845  38.013  28.867 -0.64 -0.00    +0.000 C 
BRANCH   2   3
ATOM      3  C4  MOL C   1      27.013  37.260  29.957 -0.57 -0.00    +0.000 C 
BRANCH   3   4
ATOM      4  C6  MOL C   1      26.034  38.239  30.795 -0.49 -0.00    +0.000 C 
BRANCH   4   5
ATOM      5  C8  MOL C   1      24.634  38.423  30.254 -0.50 +0.00    -0.000 C 
BRANCH   5   6
ATOM      6  C10 MOL C   1      23.693  37.565  31.093 -0.49 +0.00    -0.005 C 
ATOM      7  C12 MOL C   1      23.380  36.190  30.583 -0.57 -0.00    +0.005 C 
ENDBRANCH   5   6
ENDBRANCH   4   5
ENDBRANCH   3   4
ENDBRANCH   2   3
ENDBRANCH   1   2
BRANCH   1   8
ATOM      8  C3  MOL C   1      28.241  40.188  27.768 -0.63 -0.00    +0.000 C 
BRANCH   8   9
ATOM      9  C5  MOL C   1      29.696  40.664  28.376 -0.55 -0.00    +0.000 C 
BRANCH   9  10
ATOM     10  C7  MOL C   1      29.747  42.096  29.030 -0.73 +0.00    -0.000 C 
BRANCH  10  11
ATOM     11  C9  MOL C   1      30.162  42.125  30.542 -0.71 +0.01    -0.005 C 
ATOM     12  C11 MOL C   1      29.481  40.890  31.229 -0.52 -0.01    +0.005 C 
ENDBRANCH  10  11
ENDBRANCH   9  10
ENDBRANCH   8   9
ENDBRANCH   1   8
TORSDOF 9
TER
ENDMDL
MODEL       87
USER    Run = 87
USER    DPF = lac3.dpf
USER  
USER    Estimated Free Energy of Binding    =   -4.82 kcal/mol  [=(1)+(2)+(3)-(4)]
USER    Estimated Inhibition Constant, Ki   =  293.95 uM (micromolar)  [Temperature = 298.15 K]
USER    
USER    (1) Final Intermolecular Energy     =   -7.11 kcal/mol
USER        vdW + Hbond + desolv Energy     =   -7.11 kcal/mol
USER        Electrostatic Energy            =   +0.00 kcal/mol
USER    (2) Final Total Internal Energy     =   -0.68 kcal/mol
USER    (3) Torsional Free Energy           =   +2.68 kcal/mol
USER    (4) Unbound System's Energy         =   -0.29 kcal/mol
USER    
USER    
USER    NEWDPF move PE_ligand.pdbqt
USER    NEWDPF about 3.037000 5.209000 3.149000
USER    NEWDPF tran0 28.486343 39.020911 29.253539
USER    NEWDPF quaternion0 -0.492256 0.843015 0.132220 -0.171836
USER    NEWDPF axisangle0 -0.499688 0.855744 0.134217 -160.210809
USER    NEWDPF quat0 -0.499688 0.855744 0.134217 -160.210809
USER    NEWDPF dihe0 156.18 1.39 -134.82 119.93 173.74 157.93 -155.14 -14.92 18.72 
USER  keepresnum = 1 
USER  
REMARK  9 active torsions:
REMARK  status: ('A' for Active; 'I' for Inactive)
REMARK    1  A    between atoms: C1_1  and  C2_2 
REMARK    2  A    between atoms: C1_1  and  C3_3 
REMARK    3  A    between atoms: C2_2  and  C4_4 
REMARK    4  A    between atoms: C3_3  and  C5_5 
REMARK    5  A    between atoms: C4_4  and  C6_6 
REMARK    6  A    between atoms: C5_5  and  C7_7 
REMARK    7  A    between atoms: C6_6  and  C8_8 
REMARK    8  A    between atoms: C7_7  and  C9_9 
REMARK    9  A    between atoms: C8_8  and  C10_10 
USER                              x       y       z     vdW  Elec       q    Type
USER                           _______ _______ _______ _____ _____    ______ ____
ROOT
ATOM      1  C1  MOL C   1      27.889  39.825  28.659 -0.64 -0.00    +0.000 C 
ENDROOT
BRANCH   1   2
ATOM      2  C2  MOL C   1      27.879  38.309  28.417 -0.64 -0.00    +0.000 C 
BRANCH   2   3
ATOM      3  C4  MOL C   1      27.925  37.626  29.823 -0.62 -0.00    +0.000 C 
BRANCH   3   4
ATOM      4  C6  MOL C   1      27.233  38.517  30.983 -0.51 -0.00    +0.000 C 
BRANCH   4   5
ATOM      5  C8  MOL C   1      25.733  38.392  31.131 -0.47 +0.00    -0.000 C 
BRANCH   5   6
ATOM      6  C10 MOL C   1      25.351  36.951  30.808 -0.50 +0.00    -0.005 C 
ATOM      7  C12 MOL C   1      24.009  36.723  30.180 -0.60 -0.00    +0.005 C 
ENDBRANCH   5   6
ENDBRANCH   4   5
ENDBRANCH   3   4
ENDBRANCH   2   3
ENDBRANCH   1   2
BRANCH   1   8
ATOM      8  C3  MOL C   1      29.379  40.270  28.372 -0.53 -0.00    +0.000 C 
BRANCH   8   9
ATOM      9  C5  MOL C   1      29.566  41.831  28.864 -0.70 -0.00    +0.000 C 
BRANCH   9  10
ATOM     10  C7  MOL C   1      30.218  42.045  30.281 -0.72 +0.00    -0.000 C 
BRANCH  10  11
ATOM     11  C9  MOL C   1      29.653  41.129  31.421 -0.58 +0.01    -0.005 C 
ATOM     12  C11 MOL C   1      30.132  41.743  32.783 -0.60 -0.01    +0.005 C 
ENDBRANCH  10  11
ENDBRANCH   9  10
ENDBRANCH   8   9
ENDBRANCH   1   8
TORSDOF 9
TER
ENDMDL
MODEL       88
USER    Run = 88
USER    DPF = lac3.dpf
USER  
USER    Estimated Free Energy of Binding    =   -4.07 kcal/mol  [=(1)+(2)+(3)-(4)]
USER    Estimated Inhibition Constant, Ki   =    1.03 mM (millimolar)  [Temperature = 298.15 K]
USER    
USER    (1) Final Intermolecular Energy     =   -6.68 kcal/mol
USER        vdW + Hbond + desolv Energy     =   -6.68 kcal/mol
USER        Electrostatic Energy            =   -0.00 kcal/mol
USER    (2) Final Total Internal Energy     =   -0.37 kcal/mol
USER    (3) Torsional Free Energy           =   +2.68 kcal/mol
USER    (4) Unbound System's Energy         =   -0.29 kcal/mol
USER    
USER    
USER    NEWDPF move PE_ligand.pdbqt
USER    NEWDPF about 3.037000 5.209000 3.149000
USER    NEWDPF tran0 26.896849 38.125969 29.306825
USER    NEWDPF quaternion0 -0.422976 0.162882 0.479580 0.751375
USER    NEWDPF axisangle0 -0.640993 0.246837 0.726773 82.580796
USER    NEWDPF quat0 -0.640993 0.246837 0.726773 82.580796
USER    NEWDPF dihe0 125.04 159.24 -99.22 -65.69 179.71 143.54 115.69 -140.63 31.15 
USER  keepresnum = 1 
USER  
REMARK  9 active torsions:
REMARK  status: ('A' for Active; 'I' for Inactive)
REMARK    1  A    between atoms: C1_1  and  C2_2 
REMARK    2  A    between atoms: C1_1  and  C3_3 
REMARK    3  A    between atoms: C2_2  and  C4_4 
REMARK    4  A    between atoms: C3_3  and  C5_5 
REMARK    5  A    between atoms: C4_4  and  C6_6 
REMARK    6  A    between atoms: C5_5  and  C7_7 
REMARK    7  A    between atoms: C6_6  and  C8_8 
REMARK    8  A    between atoms: C7_7  and  C9_9 
REMARK    9  A    between atoms: C8_8  and  C10_10 
USER                              x       y       z     vdW  Elec       q    Type
USER                           _______ _______ _______ _____ _____    ______ ____
ROOT
ATOM      1  C1  MOL C   1      26.861  38.015  30.466 -0.54 -0.00    +0.000 C 
ENDROOT
BRANCH   1   2
ATOM      2  C2  MOL C   1      27.311  36.950  29.456 -0.57 -0.00    +0.000 C 
BRANCH   2   3
ATOM      3  C4  MOL C   1      28.359  37.631  28.516 -0.62 -0.00    +0.000 C 
BRANCH   3   4
ATOM      4  C6  MOL C   1      27.761  38.907  27.719 -0.61 -0.00    +0.000 C 
BRANCH   4   5
ATOM      5  C8  MOL C   1      27.898  40.253  28.394 -0.65 +0.00    -0.000 C 
BRANCH   5   6
ATOM      6  C10 MOL C   1      29.374  40.637  28.377 -0.67 +0.00    -0.005 C 
ATOM      7  C12 MOL C   1      29.750  41.942  29.012 -0.74 -0.01    +0.005 C 
ENDBRANCH   5   6
ENDBRANCH   4   5
ENDBRANCH   3   4
ENDBRANCH   2   3
ENDBRANCH   1   2
BRANCH   1   8
ATOM      8  C3  MOL C   1      25.337  38.271  30.132 -0.47 -0.00    +0.000 C 
BRANCH   8   9
ATOM      9  C5  MOL C   1      24.495  36.887  30.429 -0.58 -0.00    +0.000 C 
BRANCH   9  10
ATOM     10  C7  MOL C   1      24.043  36.649  31.918 -0.43 +0.00    -0.000 C 
BRANCH  10  11
ATOM     11  C9  MOL C   1      22.522  36.316  32.110 -0.34 +0.00    -0.005 C 
ATOM     12  C11 MOL C   1      21.831  36.505  30.714 -0.45 -0.00    +0.005 C 
ENDBRANCH  10  11
ENDBRANCH   9  10
ENDBRANCH   8   9
ENDBRANCH   1   8
TORSDOF 9
TER
ENDMDL
MODEL       89
USER    Run = 89
USER    DPF = lac3.dpf
USER  
USER    Estimated Free Energy of Binding    =   -3.93 kcal/mol  [=(1)+(2)+(3)-(4)]
USER    Estimated Inhibition Constant, Ki   =    1.31 mM (millimolar)  [Temperature = 298.15 K]
USER    
USER    (1) Final Intermolecular Energy     =   -6.54 kcal/mol
USER        vdW + Hbond + desolv Energy     =   -6.53 kcal/mol
USER        Electrostatic Energy            =   -0.00 kcal/mol
USER    (2) Final Total Internal Energy     =   -0.37 kcal/mol
USER    (3) Torsional Free Energy           =   +2.68 kcal/mol
USER    (4) Unbound System's Energy         =   -0.29 kcal/mol
USER    
USER    
USER    NEWDPF move PE_ligand.pdbqt
USER    NEWDPF about 3.037000 5.209000 3.149000
USER    NEWDPF tran0 27.017268 37.663769 31.562714
USER    NEWDPF quaternion0 -0.313418 0.924352 0.097689 -0.194420
USER    NEWDPF axisangle0 -0.319514 0.942334 0.099589 -157.578308
USER    NEWDPF quat0 -0.319514 0.942334 0.099589 -157.578308
USER    NEWDPF dihe0 -164.54 162.26 -114.58 -105.20 179.71 94.04 5.25 -126.69 140.10 
USER  keepresnum = 1 
USER  
REMARK  9 active torsions:
REMARK  status: ('A' for Active; 'I' for Inactive)
REMARK    1  A    between atoms: C1_1  and  C2_2 
REMARK    2  A    between atoms: C1_1  and  C3_3 
REMARK    3  A    between atoms: C2_2  and  C4_4 
REMARK    4  A    between atoms: C3_3  and  C5_5 
REMARK    5  A    between atoms: C4_4  and  C6_6 
REMARK    6  A    between atoms: C5_5  and  C7_7 
REMARK    7  A    between atoms: C6_6  and  C8_8 
REMARK    8  A    between atoms: C7_7  and  C9_9 
REMARK    9  A    between atoms: C8_8  and  C10_10 
USER                              x       y       z     vdW  Elec       q    Type
USER                           _______ _______ _______ _____ _____    ______ ____
ROOT
ATOM      1  C1  MOL C   1      26.781  38.640  30.973 -0.47 -0.00    +0.000 C 
ENDROOT
BRANCH   1   2
ATOM      2  C2  MOL C   1      26.178  37.250  30.726 -0.49 -0.00    +0.000 C 
BRANCH   2   3
ATOM      3  C4  MOL C   1      24.847  37.469  29.933 -0.43 -0.00    +0.000 C 
BRANCH   3   4
ATOM      4  C6  MOL C   1      23.955  36.124  29.810 -0.63 -0.00    +0.000 C 
BRANCH   4   5
ATOM      5  C8  MOL C   1      22.942  35.880  30.906 -0.49 +0.00    -0.000 C 
BRANCH   5   6
ATOM      6  C10 MOL C   1      22.051  37.114  31.001 -0.45 +0.00    -0.005 C 
ATOM      7  C12 MOL C   1      22.218  37.988  32.208 -0.37 -0.00    +0.005 C 
ENDBRANCH   5   6
ENDBRANCH   4   5
ENDBRANCH   3   4
ENDBRANCH   2   3
ENDBRANCH   1   2
BRANCH   1   8
ATOM      8  C3  MOL C   1      28.326  38.468  30.682 -0.56 -0.00    +0.000 C 
BRANCH   8   9
ATOM      9  C5  MOL C   1      28.556  38.469  29.050 -0.62 -0.00    +0.000 C 
BRANCH   9  10
ATOM     10  C7  MOL C   1      27.602  39.396  28.209 -0.68 +0.00    -0.000 C 
BRANCH  10  11
ATOM     11  C9  MOL C   1      28.111  40.865  28.000 -0.64 +0.00    -0.005 C 
ATOM     12  C11 MOL C   1      29.439  41.012  28.822 -0.70 -0.00    +0.005 C 
ENDBRANCH  10  11
ENDBRANCH   9  10
ENDBRANCH   8   9
ENDBRANCH   1   8
TORSDOF 9
TER
ENDMDL
MODEL       90
USER    Run = 90
USER    DPF = lac3.dpf
USER  
USER    Estimated Free Energy of Binding    =   -4.31 kcal/mol  [=(1)+(2)+(3)-(4)]
USER    Estimated Inhibition Constant, Ki   =  697.70 uM (micromolar)  [Temperature = 298.15 K]
USER    
USER    (1) Final Intermolecular Energy     =   -6.46 kcal/mol
USER        vdW + Hbond + desolv Energy     =   -6.46 kcal/mol
USER        Electrostatic Energy            =   -0.00 kcal/mol
USER    (2) Final Total Internal Energy     =   -0.82 kcal/mol
USER    (3) Torsional Free Energy           =   +2.68 kcal/mol
USER    (4) Unbound System's Energy         =   -0.29 kcal/mol
USER    
USER    
USER    NEWDPF move PE_ligand.pdbqt
USER    NEWDPF about 3.037000 5.209000 3.149000
USER    NEWDPF tran0 26.260743 38.463951 30.565728
USER    NEWDPF quaternion0 -0.523847 0.595317 -0.571489 0.211145
USER    NEWDPF axisangle0 -0.535929 0.609048 -0.584671 155.621082
USER    NEWDPF quat0 -0.535929 0.609048 -0.584671 155.621082
USER    NEWDPF dihe0 161.38 -35.96 98.32 -32.87 -74.57 -180.00 60.07 40.55 -11.51 
USER  keepresnum = 1 
USER  
REMARK  9 active torsions:
REMARK  status: ('A' for Active; 'I' for Inactive)
REMARK    1  A    between atoms: C1_1  and  C2_2 
REMARK    2  A    between atoms: C1_1  and  C3_3 
REMARK    3  A    between atoms: C2_2  and  C4_4 
REMARK    4  A    between atoms: C3_3  and  C5_5 
REMARK    5  A    between atoms: C4_4  and  C6_6 
REMARK    6  A    between atoms: C5_5  and  C7_7 
REMARK    7  A    between atoms: C6_6  and  C8_8 
REMARK    8  A    between atoms: C7_7  and  C9_9 
REMARK    9  A    between atoms: C8_8  and  C10_10 
USER                              x       y       z     vdW  Elec       q    Type
USER                           _______ _______ _______ _____ _____    ______ ____
ROOT
ATOM      1  C1  MOL C   1      25.805  37.644  29.875 -0.52 -0.00    +0.000 C 
ENDROOT
BRANCH   1   2
ATOM      2  C2  MOL C   1      25.838  37.636  31.410 -0.45 -0.00    +0.000 C 
BRANCH   2   3
ATOM      3  C4  MOL C   1      26.364  39.039  31.859 -0.37 -0.00    +0.000 C 
BRANCH   3   4
ATOM      4  C6  MOL C   1      27.790  38.967  32.621 -0.41 -0.00    +0.000 C 
BRANCH   4   5
ATOM      5  C8  MOL C   1      28.200  40.189  33.411 -0.40 +0.00    -0.000 C 
BRANCH   5   6
ATOM      6  C10 MOL C   1      29.035  41.079  32.497 -0.49 +0.00    -0.005 C 
ATOM      7  C12 MOL C   1      30.191  41.805  33.117 -0.55 -0.01    +0.005 C 
ENDBRANCH   5   6
ENDBRANCH   4   5
ENDBRANCH   3   4
ENDBRANCH   2   3
ENDBRANCH   1   2
BRANCH   1   8
ATOM      8  C3  MOL C   1      27.324  37.609  29.438 -0.62 -0.00    +0.000 C 
BRANCH   8   9
ATOM      9  C5  MOL C   1      27.685  39.026  28.679 -0.63 -0.00    +0.000 C 
BRANCH   9  10
ATOM     10  C7  MOL C   1      28.828  39.894  29.325 -0.60 +0.00    -0.000 C 
BRANCH  10  11
ATOM     11  C9  MOL C   1      29.463  40.973  28.380 -0.67 +0.00    -0.005 C 
ATOM     12  C11 MOL C   1      30.107  42.068  29.300 -0.74 -0.01    +0.005 C 
ENDBRANCH  10  11
ENDBRANCH   9  10
ENDBRANCH   8   9
ENDBRANCH   1   8
TORSDOF 9
TER
ENDMDL
MODEL       91
USER    Run = 91
USER    DPF = lac3.dpf
USER  
USER    Estimated Free Energy of Binding    =   -4.46 kcal/mol  [=(1)+(2)+(3)-(4)]
USER    Estimated Inhibition Constant, Ki   =  534.86 uM (micromolar)  [Temperature = 298.15 K]
USER    
USER    (1) Final Intermolecular Energy     =   -6.67 kcal/mol
USER        vdW + Hbond + desolv Energy     =   -6.67 kcal/mol
USER        Electrostatic Energy            =   -0.00 kcal/mol
USER    (2) Final Total Internal Energy     =   -0.76 kcal/mol
USER    (3) Torsional Free Energy           =   +2.68 kcal/mol
USER    (4) Unbound System's Energy         =   -0.29 kcal/mol
USER    
USER    
USER    NEWDPF move PE_ligand.pdbqt
USER    NEWDPF about 3.037000 5.209000 3.149000
USER    NEWDPF tran0 27.109640 39.130242 30.776945
USER    NEWDPF quaternion0 -0.411808 0.039280 -0.054286 0.908804
USER    NEWDPF axisangle0 -0.987020 0.094145 -0.130112 49.318903
USER    NEWDPF quat0 -0.987020 0.094145 -0.130112 49.318903
USER    NEWDPF dihe0 -26.99 -169.95 -76.57 57.26 2.29 -57.04 -55.79 40.10 -72.39 
USER  keepresnum = 1 
USER  
REMARK  9 active torsions:
REMARK  status: ('A' for Active; 'I' for Inactive)
REMARK    1  A    between atoms: C1_1  and  C2_2 
REMARK    2  A    between atoms: C1_1  and  C3_3 
REMARK    3  A    between atoms: C2_2  and  C4_4 
REMARK    4  A    between atoms: C3_3  and  C5_5 
REMARK    5  A    between atoms: C4_4  and  C6_6 
REMARK    6  A    between atoms: C5_5  and  C7_7 
REMARK    7  A    between atoms: C6_6  and  C8_8 
REMARK    8  A    between atoms: C7_7  and  C9_9 
REMARK    9  A    between atoms: C8_8  and  C10_10 
USER                              x       y       z     vdW  Elec       q    Type
USER                           _______ _______ _______ _____ _____    ______ ____
ROOT
ATOM      1  C1  MOL C   1      26.866  39.126  31.916 -0.41 -0.00    +0.000 C 
ENDROOT
BRANCH   1   2
ATOM      2  C2  MOL C   1      28.257  39.016  31.274 -0.53 -0.00    +0.000 C 
BRANCH   2   3
ATOM      3  C4  MOL C   1      28.186  37.847  30.237 -0.57 -0.00    +0.000 C 
BRANCH   3   4
ATOM      4  C6  MOL C   1      28.732  38.266  28.772 -0.58 -0.00    +0.000 C 
BRANCH   4   5
ATOM      5  C8  MOL C   1      27.730  38.892  27.828 -0.63 +0.00    -0.000 C 
BRANCH   5   6
ATOM      6  C10 MOL C   1      27.815  40.406  27.995 -0.68 +0.00    -0.005 C 
ATOM      7  C12 MOL C   1      29.135  40.975  28.422 -0.70 -0.00    +0.005 C 
ENDBRANCH   5   6
ENDBRANCH   4   5
ENDBRANCH   3   4
ENDBRANCH   2   3
ENDBRANCH   1   2
BRANCH   1   8
ATOM      8  C3  MOL C   1      26.094  37.836  31.430 -0.44 -0.00    +0.000 C 
BRANCH   8   9
ATOM      9  C5  MOL C   1      24.838  38.305  30.471 -0.51 -0.00    +0.000 C 
BRANCH   9  10
ATOM     10  C7  MOL C   1      23.393  37.966  30.995 -0.51 +0.00    -0.000 C 
BRANCH  10  11
ATOM     11  C9  MOL C   1      22.649  36.828  30.214 -0.54 +0.00    -0.005 C 
ATOM     12  C11 MOL C   1      23.750  35.945  29.530 -0.58 -0.00    +0.005 C 
ENDBRANCH  10  11
ENDBRANCH   9  10
ENDBRANCH   8   9
ENDBRANCH   1   8
TORSDOF 9
TER
ENDMDL
MODEL       92
USER    Run = 92
USER    DPF = lac3.dpf
USER  
USER    Estimated Free Energy of Binding    =   -4.44 kcal/mol  [=(1)+(2)+(3)-(4)]
USER    Estimated Inhibition Constant, Ki   =  556.27 uM (micromolar)  [Temperature = 298.15 K]
USER    
USER    (1) Final Intermolecular Energy     =   -6.90 kcal/mol
USER        vdW + Hbond + desolv Energy     =   -6.89 kcal/mol
USER        Electrostatic Energy            =   -0.00 kcal/mol
USER    (2) Final Total Internal Energy     =   -0.52 kcal/mol
USER    (3) Torsional Free Energy           =   +2.68 kcal/mol
USER    (4) Unbound System's Energy         =   -0.29 kcal/mol
USER    
USER    
USER    NEWDPF move PE_ligand.pdbqt
USER    NEWDPF about 3.037000 5.209000 3.149000
USER    NEWDPF tran0 26.786735 37.049746 29.952493
USER    NEWDPF quaternion0 0.429579 0.039608 -0.138651 0.891442
USER    NEWDPF axisangle0 0.948016 0.087409 -0.305982 53.889916
USER    NEWDPF quat0 0.948016 0.087409 -0.305982 53.889916
USER    NEWDPF dihe0 115.05 -179.98 -163.69 -61.97 -172.12 145.21 -166.01 -16.55 99.38 
USER  keepresnum = 1 
USER  
REMARK  9 active torsions:
REMARK  status: ('A' for Active; 'I' for Inactive)
REMARK    1  A    between atoms: C1_1  and  C2_2 
REMARK    2  A    between atoms: C1_1  and  C3_3 
REMARK    3  A    between atoms: C2_2  and  C4_4 
REMARK    4  A    between atoms: C3_3  and  C5_5 
REMARK    5  A    between atoms: C4_4  and  C6_6 
REMARK    6  A    between atoms: C5_5  and  C7_7 
REMARK    7  A    between atoms: C6_6  and  C8_8 
REMARK    8  A    between atoms: C7_7  and  C9_9 
REMARK    9  A    between atoms: C8_8  and  C10_10 
USER                              x       y       z     vdW  Elec       q    Type
USER                           _______ _______ _______ _____ _____    ______ ____
ROOT
ATOM      1  C1  MOL C   1      26.351  38.112  29.753 -0.53 -0.00    +0.000 C 
ENDROOT
BRANCH   1   2
ATOM      2  C2  MOL C   1      27.821  37.758  30.022 -0.60 -0.00    +0.000 C 
BRANCH   2   3
ATOM      3  C4  MOL C   1      28.630  38.190  28.756 -0.61 -0.00    +0.000 C 
BRANCH   3   4
ATOM      4  C6  MOL C   1      27.836  39.254  27.829 -0.66 -0.00    +0.000 C 
BRANCH   4   5
ATOM      5  C8  MOL C   1      28.199  40.711  28.004 -0.69 +0.00    -0.000 C 
BRANCH   5   6
ATOM      6  C10 MOL C   1      29.377  40.785  28.970 -0.66 +0.00    -0.005 C 
ATOM      7  C12 MOL C   1      30.049  42.116  29.129 -0.74 -0.01    +0.005 C 
ENDBRANCH   5   6
ENDBRANCH   4   5
ENDBRANCH   3   4
ENDBRANCH   2   3
ENDBRANCH   1   2
BRANCH   1   8
ATOM      8  C3  MOL C   1      25.589  37.708  31.078 -0.49 -0.00    +0.000 C 
BRANCH   8   9
ATOM      9  C5  MOL C   1      23.969  37.835  30.812 -0.52 -0.00    +0.000 C 
BRANCH   9  10
ATOM     10  C7  MOL C   1      23.264  36.582  30.170 -0.59 +0.00    -0.000 C 
BRANCH  10  11
ATOM     11  C9  MOL C   1      21.940  36.126  30.875 -0.43 +0.00    -0.005 C 
ATOM     12  C11 MOL C   1      21.508  37.288  31.837 -0.39 -0.00    +0.005 C 
ENDBRANCH  10  11
ENDBRANCH   9  10
ENDBRANCH   8   9
ENDBRANCH   1   8
TORSDOF 9
TER
ENDMDL
MODEL       93
USER    Run = 93
USER    DPF = lac3.dpf
USER  
USER    Estimated Free Energy of Binding    =   -4.38 kcal/mol  [=(1)+(2)+(3)-(4)]
USER    Estimated Inhibition Constant, Ki   =  613.15 uM (micromolar)  [Temperature = 298.15 K]
USER    
USER    (1) Final Intermolecular Energy     =   -6.70 kcal/mol
USER        vdW + Hbond + desolv Energy     =   -6.69 kcal/mol
USER        Electrostatic Energy            =   -0.00 kcal/mol
USER    (2) Final Total Internal Energy     =   -0.66 kcal/mol
USER    (3) Torsional Free Energy           =   +2.68 kcal/mol
USER    (4) Unbound System's Energy         =   -0.29 kcal/mol
USER    
USER    
USER    NEWDPF move PE_ligand.pdbqt
USER    NEWDPF about 3.037000 5.209000 3.149000
USER    NEWDPF tran0 27.068667 38.333220 29.464622
USER    NEWDPF quaternion0 -0.373583 0.086708 0.577218 0.720928
USER    NEWDPF axisangle0 -0.539072 0.125117 0.832915 87.737759
USER    NEWDPF quat0 -0.539072 0.125117 0.832915 87.737759
USER    NEWDPF dihe0 -180.00 84.07 -126.98 121.30 179.97 -22.13 100.65 -106.96 31.69 
USER  keepresnum = 1 
USER  
REMARK  9 active torsions:
REMARK  status: ('A' for Active; 'I' for Inactive)
REMARK    1  A    between atoms: C1_1  and  C2_2 
REMARK    2  A    between atoms: C1_1  and  C3_3 
REMARK    3  A    between atoms: C2_2  and  C4_4 
REMARK    4  A    between atoms: C3_3  and  C5_5 
REMARK    5  A    between atoms: C4_4  and  C6_6 
REMARK    6  A    between atoms: C5_5  and  C7_7 
REMARK    7  A    between atoms: C6_6  and  C8_8 
REMARK    8  A    between atoms: C7_7  and  C9_9 
REMARK    9  A    between atoms: C8_8  and  C10_10 
USER                              x       y       z     vdW  Elec       q    Type
USER                           _______ _______ _______ _____ _____    ______ ____
ROOT
ATOM      1  C1  MOL C   1      27.285  38.146  30.594 -0.54 -0.00    +0.000 C 
ENDROOT
BRANCH   1   2
ATOM      2  C2  MOL C   1      27.346  37.109  29.463 -0.59 -0.00    +0.000 C 
BRANCH   2   3
ATOM      3  C4  MOL C   1      28.244  37.718  28.337 -0.60 -0.00    +0.000 C 
BRANCH   3   4
ATOM      4  C6  MOL C   1      27.499  38.880  27.492 -0.65 -0.00    +0.000 C 
BRANCH   4   5
ATOM      5  C8  MOL C   1      27.657  40.296  27.999 -0.68 +0.00    -0.000 C 
BRANCH   5   6
ATOM      6  C10 MOL C   1      29.113  40.484  28.412 -0.67 +0.00    -0.005 C 
ATOM      7  C12 MOL C   1      29.374  40.942  29.815 -0.53 -0.00    +0.005 C 
ENDBRANCH   5   6
ENDBRANCH   4   5
ENDBRANCH   3   4
ENDBRANCH   2   3
ENDBRANCH   1   2
BRANCH   1   8
ATOM      8  C3  MOL C   1      25.773  38.605  30.640 -0.43 -0.00    +0.000 C 
BRANCH   8   9
ATOM      9  C5  MOL C   1      25.006  37.770  31.835 -0.43 -0.00    +0.000 C 
BRANCH   9  10
ATOM     10  C7  MOL C   1      24.522  36.317  31.473 -0.46 +0.00    -0.000 C 
BRANCH  10  11
ATOM     11  C9  MOL C   1      23.819  36.175  30.078 -0.62 +0.00    -0.005 C 
ATOM     12  C11 MOL C   1      22.323  36.606  30.271 -0.50 -0.00    +0.005 C 
ENDBRANCH  10  11
ENDBRANCH   9  10
ENDBRANCH   8   9
ENDBRANCH   1   8
TORSDOF 9
TER
ENDMDL
MODEL       94
USER    Run = 94
USER    DPF = lac3.dpf
USER  
USER    Estimated Free Energy of Binding    =   -4.45 kcal/mol  [=(1)+(2)+(3)-(4)]
USER    Estimated Inhibition Constant, Ki   =  548.49 uM (micromolar)  [Temperature = 298.15 K]
USER    
USER    (1) Final Intermolecular Energy     =   -6.83 kcal/mol
USER        vdW + Hbond + desolv Energy     =   -6.83 kcal/mol
USER        Electrostatic Energy            =   -0.00 kcal/mol
USER    (2) Final Total Internal Energy     =   -0.59 kcal/mol
USER    (3) Torsional Free Energy           =   +2.68 kcal/mol
USER    (4) Unbound System's Energy         =   -0.29 kcal/mol
USER    
USER    
USER    NEWDPF move PE_ligand.pdbqt
USER    NEWDPF about 3.037000 5.209000 3.149000
USER    NEWDPF tran0 26.939692 37.109548 30.032477
USER    NEWDPF quaternion0 -0.506916 0.142792 0.159684 -0.834953
USER    NEWDPF axisangle0 -0.921129 0.259471 0.290165 -66.778012
USER    NEWDPF quat0 -0.921129 0.259471 0.290165 -66.778012
USER    NEWDPF dihe0 -173.89 -180.00 177.75 -88.02 -110.55 -28.59 165.12 42.97 157.17 
USER  keepresnum = 1 
USER  
REMARK  9 active torsions:
REMARK  status: ('A' for Active; 'I' for Inactive)
REMARK    1  A    between atoms: C1_1  and  C2_2 
REMARK    2  A    between atoms: C1_1  and  C3_3 
REMARK    3  A    between atoms: C2_2  and  C4_4 
REMARK    4  A    between atoms: C3_3  and  C5_5 
REMARK    5  A    between atoms: C4_4  and  C6_6 
REMARK    6  A    between atoms: C5_5  and  C7_7 
REMARK    7  A    between atoms: C6_6  and  C8_8 
REMARK    8  A    between atoms: C7_7  and  C9_9 
REMARK    9  A    between atoms: C8_8  and  C10_10 
USER                              x       y       z     vdW  Elec       q    Type
USER                           _______ _______ _______ _____ _____    ______ ____
ROOT
ATOM      1  C1  MOL C   1      26.538  38.155  29.712 -0.54 -0.00    +0.000 C 
ENDROOT
BRANCH   1   2
ATOM      2  C2  MOL C   1      27.987  37.658  29.611 -0.63 -0.00    +0.000 C 
BRANCH   2   3
ATOM      3  C4  MOL C   1      28.808  38.793  28.915 -0.56 -0.00    +0.000 C 
BRANCH   3   4
ATOM      4  C6  MOL C   1      27.874  39.963  28.299 -0.69 -0.00    +0.000 C 
BRANCH   4   5
ATOM      5  C8  MOL C   1      28.542  41.294  28.033 -0.55 +0.00    -0.000 C 
BRANCH   5   6
ATOM      6  C10 MOL C   1      29.898  41.284  28.730 -0.65 +0.01    -0.005 C 
ATOM      7  C12 MOL C   1      30.124  42.308  29.802 -0.73 -0.01    +0.005 C 
ENDBRANCH   5   6
ENDBRANCH   4   5
ENDBRANCH   3   4
ENDBRANCH   2   3
ENDBRANCH   1   2
BRANCH   1   8
ATOM      8  C3  MOL C   1      26.220  38.163  31.260 -0.47 -0.00    +0.000 C 
BRANCH   8   9
ATOM      9  C5  MOL C   1      25.100  36.995  31.572 -0.46 -0.00    +0.000 C 
BRANCH   9  10
ATOM     10  C7  MOL C   1      23.590  37.422  31.444 -0.46 +0.00    -0.000 C 
BRANCH  10  11
ATOM     11  C9  MOL C   1      22.846  36.872  30.177 -0.55 +0.00    -0.005 C 
ATOM     12  C11 MOL C   1      23.753  35.749  29.562 -0.55 -0.00    +0.005 C 
ENDBRANCH  10  11
ENDBRANCH   9  10
ENDBRANCH   8   9
ENDBRANCH   1   8
TORSDOF 9
TER
ENDMDL
MODEL       95
USER    Run = 95
USER    DPF = lac3.dpf
USER  
USER    Estimated Free Energy of Binding    =   -4.60 kcal/mol  [=(1)+(2)+(3)-(4)]
USER    Estimated Inhibition Constant, Ki   =  422.71 uM (micromolar)  [Temperature = 298.15 K]
USER    
USER    (1) Final Intermolecular Energy     =   -6.79 kcal/mol
USER        vdW + Hbond + desolv Energy     =   -6.78 kcal/mol
USER        Electrostatic Energy            =   -0.00 kcal/mol
USER    (2) Final Total Internal Energy     =   -0.79 kcal/mol
USER    (3) Torsional Free Energy           =   +2.68 kcal/mol
USER    (4) Unbound System's Energy         =   -0.29 kcal/mol
USER    
USER    
USER    NEWDPF move PE_ligand.pdbqt
USER    NEWDPF about 3.037000 5.209000 3.149000
USER    NEWDPF tran0 27.746679 37.809211 29.850157
USER    NEWDPF quaternion0 -0.360436 0.365459 0.858093 -0.014193
USER    NEWDPF axisangle0 -0.360472 0.365496 0.858180 -178.373536
USER    NEWDPF quat0 -0.360472 0.365496 0.858180 -178.373536
USER    NEWDPF dihe0 116.00 159.30 -107.96 87.13 174.41 -82.02 49.72 -24.06 -22.38 
USER  keepresnum = 1 
USER  
REMARK  9 active torsions:
REMARK  status: ('A' for Active; 'I' for Inactive)
REMARK    1  A    between atoms: C1_1  and  C2_2 
REMARK    2  A    between atoms: C1_1  and  C3_3 
REMARK    3  A    between atoms: C2_2  and  C4_4 
REMARK    4  A    between atoms: C3_3  and  C5_5 
REMARK    5  A    between atoms: C4_4  and  C6_6 
REMARK    6  A    between atoms: C5_5  and  C7_7 
REMARK    7  A    between atoms: C6_6  and  C8_8 
REMARK    8  A    between atoms: C7_7  and  C9_9 
REMARK    9  A    between atoms: C8_8  and  C10_10 
USER                              x       y       z     vdW  Elec       q    Type
USER                           _______ _______ _______ _____ _____    ______ ____
ROOT
ATOM      1  C1  MOL C   1      27.113  37.677  30.819 -0.45 -0.00    +0.000 C 
ENDROOT
BRANCH   1   2
ATOM      2  C2  MOL C   1      26.595  37.663  29.374 -0.54 -0.00    +0.000 C 
BRANCH   2   3
ATOM      3  C4  MOL C   1      27.822  37.955  28.449 -0.64 -0.00    +0.000 C 
BRANCH   3   4
ATOM      4  C6  MOL C   1      27.576  39.203  27.447 -0.65 -0.00    +0.000 C 
BRANCH   4   5
ATOM      5  C8  MOL C   1      27.863  40.582  27.997 -0.68 +0.00    -0.000 C 
BRANCH   5   6
ATOM      6  C10 MOL C   1      29.339  40.637  28.374 -0.67 +0.00    -0.005 C 
ATOM      7  C12 MOL C   1      29.898  41.972  28.763 -0.74 -0.01    +0.005 C 
ENDBRANCH   5   6
ENDBRANCH   4   5
ENDBRANCH   3   4
ENDBRANCH   2   3
ENDBRANCH   1   2
BRANCH   1   8
ATOM      8  C3  MOL C   1      27.695  39.132  31.025 -0.49 -0.00    +0.000 C 
BRANCH   8   9
ATOM      9  C5  MOL C   1      28.305  39.242  32.552 -0.44 -0.00    +0.000 C 
BRANCH   9  10
ATOM     10  C7  MOL C   1      28.075  40.608  33.301 -0.39 +0.00    -0.000 C 
BRANCH  10  11
ATOM     11  C9  MOL C   1      29.037  41.772  32.878 -0.49 +0.00    -0.005 C 
ATOM     12  C11 MOL C   1      30.112  41.154  31.917 -0.59 -0.01    +0.005 C 
ENDBRANCH  10  11
ENDBRANCH   9  10
ENDBRANCH   8   9
ENDBRANCH   1   8
TORSDOF 9
TER
ENDMDL
MODEL       96
USER    Run = 96
USER    DPF = lac3.dpf
USER  
USER    Estimated Free Energy of Binding    =   -4.34 kcal/mol  [=(1)+(2)+(3)-(4)]
USER    Estimated Inhibition Constant, Ki   =  653.80 uM (micromolar)  [Temperature = 298.15 K]
USER    
USER    (1) Final Intermolecular Energy     =   -6.91 kcal/mol
USER        vdW + Hbond + desolv Energy     =   -6.91 kcal/mol
USER        Electrostatic Energy            =   -0.00 kcal/mol
USER    (2) Final Total Internal Energy     =   -0.40 kcal/mol
USER    (3) Torsional Free Energy           =   +2.68 kcal/mol
USER    (4) Unbound System's Energy         =   -0.29 kcal/mol
USER    
USER    
USER    NEWDPF move PE_ligand.pdbqt
USER    NEWDPF about 3.037000 5.209000 3.149000
USER    NEWDPF tran0 26.999294 38.448754 29.318889
USER    NEWDPF quaternion0 -0.389312 0.036785 0.435598 0.810764
USER    NEWDPF axisangle0 -0.665066 0.062840 0.744136 71.658807
USER    NEWDPF quat0 -0.665066 0.062840 0.744136 71.658807
USER    NEWDPF dihe0 149.43 -119.42 140.44 169.41 -149.02 -96.91 161.29 -92.91 12.23 
USER  keepresnum = 1 
USER  
REMARK  9 active torsions:
REMARK  status: ('A' for Active; 'I' for Inactive)
REMARK    1  A    between atoms: C1_1  and  C2_2 
REMARK    2  A    between atoms: C1_1  and  C3_3 
REMARK    3  A    between atoms: C2_2  and  C4_4 
REMARK    4  A    between atoms: C3_3  and  C5_5 
REMARK    5  A    between atoms: C4_4  and  C6_6 
REMARK    6  A    between atoms: C5_5  and  C7_7 
REMARK    7  A    between atoms: C6_6  and  C8_8 
REMARK    8  A    between atoms: C7_7  and  C9_9 
REMARK    9  A    between atoms: C8_8  and  C10_10 
USER                              x       y       z     vdW  Elec       q    Type
USER                           _______ _______ _______ _____ _____    ______ ____
ROOT
ATOM      1  C1  MOL C   1      27.224  38.352  30.458 -0.54 -0.00    +0.000 C 
ENDROOT
BRANCH   1   2
ATOM      2  C2  MOL C   1      27.679  37.393  29.348 -0.64 -0.00    +0.000 C 
BRANCH   2   3
ATOM      3  C4  MOL C   1      27.884  38.256  28.060 -0.61 -0.00    +0.000 C 
BRANCH   3   4
ATOM      4  C6  MOL C   1      27.231  39.733  28.176 -0.63 -0.00    +0.000 C 
BRANCH   4   5
ATOM      5  C8  MOL C   1      28.169  40.905  27.998 -0.65 +0.00    -0.000 C 
BRANCH   5   6
ATOM      6  C10 MOL C   1      29.369  40.686  28.913 -0.66 +0.00    -0.005 C 
ATOM      7  C12 MOL C   1      30.125  41.903  29.356 -0.72 -0.01    +0.005 C 
ENDBRANCH   5   6
ENDBRANCH   4   5
ENDBRANCH   3   4
ENDBRANCH   2   3
ENDBRANCH   1   2
BRANCH   1   8
ATOM      8  C3  MOL C   1      25.645  38.266  30.445 -0.50 -0.00    +0.000 C 
BRANCH   8   9
ATOM      9  C5  MOL C   1      25.147  37.542  31.838 -0.43 -0.00    +0.000 C 
BRANCH   9  10
ATOM     10  C7  MOL C   1      23.734  36.848  31.800 -0.43 +0.00    -0.000 C 
BRANCH  10  11
ATOM     11  C9  MOL C   1      23.023  36.858  30.402 -0.55 +0.00    -0.005 C 
ATOM     12  C11 MOL C   1      23.762  35.806  29.504 -0.55 -0.00    +0.005 C 
ENDBRANCH  10  11
ENDBRANCH   9  10
ENDBRANCH   8   9
ENDBRANCH   1   8
TORSDOF 9
TER
ENDMDL
MODEL       97
USER    Run = 97
USER    DPF = lac3.dpf
USER  
USER    Estimated Free Energy of Binding    =   -4.39 kcal/mol  [=(1)+(2)+(3)-(4)]
USER    Estimated Inhibition Constant, Ki   =  604.65 uM (micromolar)  [Temperature = 298.15 K]
USER    
USER    (1) Final Intermolecular Energy     =   -6.65 kcal/mol
USER        vdW + Hbond + desolv Energy     =   -6.64 kcal/mol
USER        Electrostatic Energy            =   -0.00 kcal/mol
USER    (2) Final Total Internal Energy     =   -0.72 kcal/mol
USER    (3) Torsional Free Energy           =   +2.68 kcal/mol
USER    (4) Unbound System's Energy         =   -0.29 kcal/mol
USER    
USER    
USER    NEWDPF move PE_ligand.pdbqt
USER    NEWDPF about 3.037000 5.209000 3.149000
USER    NEWDPF tran0 28.036958 37.845075 31.099008
USER    NEWDPF quaternion0 0.831377 -0.135391 -0.449957 0.296681
USER    NEWDPF axisangle0 0.870573 -0.141774 -0.471171 145.483259
USER    NEWDPF quat0 0.870573 -0.141774 -0.471171 145.483259
USER    NEWDPF dihe0 149.21 26.83 -179.97 84.44 173.93 -157.15 -115.30 82.36 167.87 
USER  keepresnum = 1 
USER  
REMARK  9 active torsions:
REMARK  status: ('A' for Active; 'I' for Inactive)
REMARK    1  A    between atoms: C1_1  and  C2_2 
REMARK    2  A    between atoms: C1_1  and  C3_3 
REMARK    3  A    between atoms: C2_2  and  C4_4 
REMARK    4  A    between atoms: C3_3  and  C5_5 
REMARK    5  A    between atoms: C4_4  and  C6_6 
REMARK    6  A    between atoms: C5_5  and  C7_7 
REMARK    7  A    between atoms: C6_6  and  C8_8 
REMARK    8  A    between atoms: C7_7  and  C9_9 
REMARK    9  A    between atoms: C8_8  and  C10_10 
USER                              x       y       z     vdW  Elec       q    Type
USER                           _______ _______ _______ _____ _____    ______ ____
ROOT
ATOM      1  C1  MOL C   1      27.038  37.617  30.545 -0.53 -0.00    +0.000 C 
ENDROOT
BRANCH   1   2
ATOM      2  C2  MOL C   1      28.373  38.016  29.902 -0.59 -0.00    +0.000 C 
BRANCH   2   3
ATOM      3  C4  MOL C   1      28.093  38.243  28.380 -0.61 -0.00    +0.000 C 
BRANCH   3   4
ATOM      4  C6  MOL C   1      27.193  39.557  28.091 -0.65 -0.00    +0.000 C 
BRANCH   4   5
ATOM      5  C8  MOL C   1      27.928  40.876  28.002 -0.61 +0.00    -0.000 C 
BRANCH   5   6
ATOM      6  C10 MOL C   1      29.356  40.648  28.483 -0.67 +0.00    -0.005 C 
ATOM      7  C12 MOL C   1      30.095  41.835  29.024 -0.73 -0.01    +0.005 C 
ENDBRANCH   5   6
ENDBRANCH   4   5
ENDBRANCH   3   4
ENDBRANCH   2   3
ENDBRANCH   1   2
BRANCH   1   8
ATOM      8  C3  MOL C   1      26.626  38.863  31.427 -0.40 -0.00    +0.000 C 
BRANCH   8   9
ATOM      9  C5  MOL C   1      27.610  38.920  32.747 -0.38 -0.00    +0.000 C 
BRANCH   9  10
ATOM     10  C7  MOL C   1      28.035  40.353  33.242 -0.40 +0.00    -0.000 C 
BRANCH  10  11
ATOM     11  C9  MOL C   1      29.224  41.006  32.455 -0.53 +0.01    -0.005 C 
ATOM     12  C11 MOL C   1      30.135  41.724  33.511 -0.55 -0.00    +0.005 C 
ENDBRANCH  10  11
ENDBRANCH   9  10
ENDBRANCH   8   9
ENDBRANCH   1   8
TORSDOF 9
TER
ENDMDL
MODEL       98
USER    Run = 98
USER    DPF = lac3.dpf
USER  
USER    Estimated Free Energy of Binding    =   -4.38 kcal/mol  [=(1)+(2)+(3)-(4)]
USER    Estimated Inhibition Constant, Ki   =  616.07 uM (micromolar)  [Temperature = 298.15 K]
USER    
USER    (1) Final Intermolecular Energy     =   -6.70 kcal/mol
USER        vdW + Hbond + desolv Energy     =   -6.70 kcal/mol
USER        Electrostatic Energy            =   +0.00 kcal/mol
USER    (2) Final Total Internal Energy     =   -0.65 kcal/mol
USER    (3) Torsional Free Energy           =   +2.68 kcal/mol
USER    (4) Unbound System's Energy         =   -0.29 kcal/mol
USER    
USER    
USER    NEWDPF move PE_ligand.pdbqt
USER    NEWDPF about 3.037000 5.209000 3.149000
USER    NEWDPF tran0 28.501289 40.173662 31.941776
USER    NEWDPF quaternion0 -0.494600 0.335608 -0.401303 0.694042
USER    NEWDPF axisangle0 -0.687007 0.466164 -0.557416 92.098124
USER    NEWDPF quat0 -0.687007 0.466164 -0.557416 92.098124
USER    NEWDPF dihe0 107.29 -131.84 -180.00 -163.87 -177.74 -175.48 38.15 -31.10 34.71 
USER  keepresnum = 1 
USER  
REMARK  9 active torsions:
REMARK  status: ('A' for Active; 'I' for Inactive)
REMARK    1  A    between atoms: C1_1  and  C2_2 
REMARK    2  A    between atoms: C1_1  and  C3_3 
REMARK    3  A    between atoms: C2_2  and  C4_4 
REMARK    4  A    between atoms: C3_3  and  C5_5 
REMARK    5  A    between atoms: C4_4  and  C6_6 
REMARK    6  A    between atoms: C5_5  and  C7_7 
REMARK    7  A    between atoms: C6_6  and  C8_8 
REMARK    8  A    between atoms: C7_7  and  C9_9 
REMARK    9  A    between atoms: C8_8  and  C10_10 
USER                              x       y       z     vdW  Elec       q    Type
USER                           _______ _______ _______ _____ _____    ______ ____
ROOT
ATOM      1  C1  MOL C   1      27.620  39.589  32.430 -0.42 -0.00    +0.000 C 
ENDROOT
BRANCH   1   2
ATOM      2  C2  MOL C   1      28.883  40.103  33.135 -0.36 -0.00    +0.000 C 
BRANCH   2   3
ATOM      3  C4  MOL C   1      28.983  41.633  32.827 -0.48 -0.00    +0.000 C 
BRANCH   3   4
ATOM      4  C6  MOL C   1      30.487  42.109  32.464 -0.53 -0.00    +0.000 C 
BRANCH   4   5
ATOM      5  C8  MOL C   1      30.859  42.125  30.999 -0.73 +0.00    -0.000 C 
BRANCH   5   6
ATOM      6  C10 MOL C   1      29.753  41.411  30.229 -0.58 +0.01    -0.005 C 
ATOM      7  C12 MOL C   1      29.693  41.636  28.748 -0.75 -0.01    +0.005 C 
ENDBRANCH   5   6
ENDBRANCH   4   5
ENDBRANCH   3   4
ENDBRANCH   2   3
ENDBRANCH   1   2
BRANCH   1   8
ATOM      8  C3  MOL C   1      28.146  38.534  31.377 -0.52 -0.00    +0.000 C 
BRANCH   8   9
ATOM      9  C5  MOL C   1      26.848  37.800  30.676 -0.52 -0.00    +0.000 C 
BRANCH   9  10
ATOM     10  C7  MOL C   1      26.780  37.852  29.104 -0.55 +0.00    -0.000 C 
BRANCH  10  11
ATOM     11  C9  MOL C   1      28.168  37.885  28.375 -0.61 +0.00    -0.005 C 
ATOM     12  C11 MOL C   1      28.914  36.556  28.748 -0.65 -0.00    +0.005 C 
ENDBRANCH  10  11
ENDBRANCH   9  10
ENDBRANCH   8   9
ENDBRANCH   1   8
TORSDOF 9
TER
ENDMDL
MODEL       99
USER    Run = 99
USER    DPF = lac3.dpf
USER  
USER    Estimated Free Energy of Binding    =   -4.28 kcal/mol  [=(1)+(2)+(3)-(4)]
USER    Estimated Inhibition Constant, Ki   =  730.21 uM (micromolar)  [Temperature = 298.15 K]
USER    
USER    (1) Final Intermolecular Energy     =   -6.69 kcal/mol
USER        vdW + Hbond + desolv Energy     =   -6.68 kcal/mol
USER        Electrostatic Energy            =   -0.00 kcal/mol
USER    (2) Final Total Internal Energy     =   -0.56 kcal/mol
USER    (3) Torsional Free Energy           =   +2.68 kcal/mol
USER    (4) Unbound System's Energy         =   -0.29 kcal/mol
USER    
USER    
USER    NEWDPF move PE_ligand.pdbqt
USER    NEWDPF about 3.037000 5.209000 3.149000
USER    NEWDPF tran0 27.339155 39.595338 29.140927
USER    NEWDPF quaternion0 -0.113251 0.778434 -0.289101 -0.545559
USER    NEWDPF axisangle0 -0.135132 0.928839 -0.344960 -113.874203
USER    NEWDPF quat0 -0.135132 0.928839 -0.344960 -113.874203
USER    NEWDPF dihe0 123.80 93.10 -20.50 -119.95 55.27 -72.02 -59.84 65.25 -96.23 
USER  keepresnum = 1 
USER  
REMARK  9 active torsions:
REMARK  status: ('A' for Active; 'I' for Inactive)
REMARK    1  A    between atoms: C1_1  and  C2_2 
REMARK    2  A    between atoms: C1_1  and  C3_3 
REMARK    3  A    between atoms: C2_2  and  C4_4 
REMARK    4  A    between atoms: C3_3  and  C5_5 
REMARK    5  A    between atoms: C4_4  and  C6_6 
REMARK    6  A    between atoms: C5_5  and  C7_7 
REMARK    7  A    between atoms: C6_6  and  C8_8 
REMARK    8  A    between atoms: C7_7  and  C9_9 
REMARK    9  A    between atoms: C8_8  and  C10_10 
USER                              x       y       z     vdW  Elec       q    Type
USER                           _______ _______ _______ _____ _____    ______ ____
ROOT
ATOM      1  C1  MOL C   1      28.197  40.109  28.543 -0.67 -0.00    +0.000 C 
ENDROOT
BRANCH   1   2
ATOM      2  C2  MOL C   1      27.259  39.004  28.037 -0.60 -0.00    +0.000 C 
BRANCH   2   3
ATOM      3  C4  MOL C   1      27.759  37.662  28.665 -0.65 -0.00    +0.000 C 
BRANCH   3   4
ATOM      4  C6  MOL C   1      26.606  36.879  29.488 -0.54 -0.00    +0.000 C 
BRANCH   4   5
ATOM      5  C8  MOL C   1      25.594  37.734  30.217 -0.53 +0.00    -0.000 C 
BRANCH   5   6
ATOM      6  C10 MOL C   1      24.270  36.977  30.234 -0.58 +0.00    -0.005 C 
ATOM      7  C12 MOL C   1      23.113  37.635  30.925 -0.50 -0.00    +0.005 C 
ENDBRANCH   5   6
ENDBRANCH   4   5
ENDBRANCH   3   4
ENDBRANCH   2   3
ENDBRANCH   1   2
BRANCH   1   8
ATOM      8  C3  MOL C   1      29.002  39.443  29.730 -0.52 -0.00    +0.000 C 
BRANCH   8   9
ATOM      9  C5  MOL C   1      28.169  39.685  31.130 -0.41 -0.00    +0.000 C 
BRANCH   9  10
ATOM     10  C7  MOL C   1      28.998  40.230  32.352 -0.44 +0.00    -0.000 C 
BRANCH  10  11
ATOM     11  C9  MOL C   1      29.389  41.747  32.272 -0.53 +0.00    -0.005 C 
ATOM     12  C11 MOL C   1      30.526  41.872  31.198 -0.72 -0.01    +0.005 C 
ENDBRANCH  10  11
ENDBRANCH   9  10
ENDBRANCH   8   9
ENDBRANCH   1   8
TORSDOF 9
TER
ENDMDL
MODEL      100
USER    Run = 100
USER    DPF = lac3.dpf
USER  
USER    Estimated Free Energy of Binding    =   -3.95 kcal/mol  [=(1)+(2)+(3)-(4)]
USER    Estimated Inhibition Constant, Ki   =    1.28 mM (millimolar)  [Temperature = 298.15 K]
USER    
USER    (1) Final Intermolecular Energy     =   -6.30 kcal/mol
USER        vdW + Hbond + desolv Energy     =   -6.30 kcal/mol
USER        Electrostatic Energy            =   +0.00 kcal/mol
USER    (2) Final Total Internal Energy     =   -0.62 kcal/mol
USER    (3) Torsional Free Energy           =   +2.68 kcal/mol
USER    (4) Unbound System's Energy         =   -0.29 kcal/mol
USER    
USER    
USER    NEWDPF move PE_ligand.pdbqt
USER    NEWDPF about 3.037000 5.209000 3.149000
USER    NEWDPF tran0 26.391666 38.401744 31.680969
USER    NEWDPF quaternion0 0.333511 0.600840 0.725041 -0.045578
USER    NEWDPF axisangle0 0.333858 0.601465 0.725796 -174.775316
USER    NEWDPF quat0 0.333858 0.601465 0.725796 -174.775316
USER    NEWDPF dihe0 52.87 -99.77 -167.58 125.70 -84.43 -140.79 101.93 41.97 16.37 
USER  keepresnum = 1 
USER  
REMARK  9 active torsions:
REMARK  status: ('A' for Active; 'I' for Inactive)
REMARK    1  A    between atoms: C1_1  and  C2_2 
REMARK    2  A    between atoms: C1_1  and  C3_3 
REMARK    3  A    between atoms: C2_2  and  C4_4 
REMARK    4  A    between atoms: C3_3  and  C5_5 
REMARK    5  A    between atoms: C4_4  and  C6_6 
REMARK    6  A    between atoms: C5_5  and  C7_7 
REMARK    7  A    between atoms: C6_6  and  C8_8 
REMARK    8  A    between atoms: C7_7  and  C9_9 
REMARK    9  A    between atoms: C8_8  and  C10_10 
USER                              x       y       z     vdW  Elec       q    Type
USER                           _______ _______ _______ _____ _____    ______ ____
ROOT
ATOM      1  C1  MOL C   1      27.178  38.749  32.467 -0.40 -0.00    +0.000 C 
ENDROOT
BRANCH   1   2
ATOM      2  C2  MOL C   1      25.728  39.237  32.342 -0.34 -0.00    +0.000 C 
BRANCH   2   3
ATOM      3  C4  MOL C   1      24.872  38.005  31.900 -0.42 -0.00    +0.000 C 
BRANCH   3   4
ATOM      4  C6  MOL C   1      25.103  37.595  30.352 -0.54 -0.00    +0.000 C 
BRANCH   4   5
ATOM      5  C8  MOL C   1      24.211  36.507  29.798 -0.59 +0.00    -0.000 C 
BRANCH   5   6
ATOM      6  C10 MOL C   1      23.247  36.087  30.901 -0.52 +0.00    -0.005 C 
ATOM      7  C12 MOL C   1      21.811  36.491  30.748 -0.45 -0.00    +0.005 C 
ENDBRANCH   5   6
ENDBRANCH   4   5
ENDBRANCH   3   4
ENDBRANCH   2   3
ENDBRANCH   1   2
BRANCH   1   8
ATOM      8  C3  MOL C   1      27.872  39.193  31.118 -0.50 -0.00    +0.000 C 
BRANCH   8   9
ATOM      9  C5  MOL C   1      28.258  37.843  30.256 -0.56 -0.00    +0.000 C 
BRANCH   9  10
ATOM     10  C7  MOL C   1      28.492  38.041  28.712 -0.61 +0.00    -0.000 C 
BRANCH  10  11
ATOM     11  C9  MOL C   1      27.503  39.034  28.009 -0.67 +0.00    -0.005 C 
ATOM     12  C11 MOL C   1      28.192  40.443  28.005 -0.70 -0.00    +0.005 C 
ENDBRANCH  10  11
ENDBRANCH   9  10
ENDBRANCH   8   9
ENDBRANCH   1   8
TORSDOF 9
TER
ENDMDL
