MODEL        1
USER    Run = 1
USER    DPF = lac1.dpf
USER  
USER    Estimated Free Energy of Binding    =   +2.15 kcal/mol  [=(1)+(2)+(3)-(4)]
USER    
USER    (1) Final Intermolecular Energy     =   -3.31 kcal/mol
USER        vdW + Hbond + desolv Energy     =   -3.31 kcal/mol
USER        Electrostatic Energy            =   +0.00 kcal/mol
USER    (2) Final Total Internal Energy     =   +2.49 kcal/mol
USER    (3) Torsional Free Energy           =   +2.68 kcal/mol
USER    (4) Unbound System's Energy         =   -0.29 kcal/mol
USER    
USER    
USER    NEWDPF move PE_ligand.pdbqt
USER    NEWDPF about 3.037000 5.209000 3.149000
USER    NEWDPF tran0 28.165905 38.646075 27.557042
USER    NEWDPF quaternion0 -0.311573 0.716482 -0.041018 -0.622810
USER    NEWDPF axisangle0 -0.398242 0.915781 -0.052428 -102.956740
USER    NEWDPF quat0 -0.398242 0.915781 -0.052428 -102.956740
USER    NEWDPF dihe0 -139.78 89.93 -103.19 144.36 3.33 117.63 121.08 3.79 -10.63 
USER  keepresnum = 1 
USER  
REMARK  9 active torsions:
REMARK  status: ('A' for Active; 'I' for Inactive)
REMARK    1  A    between atoms: C1_1  and  C2_2 
REMARK    2  A    between atoms: C1_1  and  C3_3 
REMARK    3  A    between atoms: C2_2  and  C4_4 
REMARK    4  A    between atoms: C3_3  and  C5_5 
REMARK    5  A    between atoms: C4_4  and  C6_6 
REMARK    6  A    between atoms: C5_5  and  C7_7 
REMARK    7  A    between atoms: C6_6  and  C8_8 
REMARK    8  A    between atoms: C7_7  and  C9_9 
REMARK    9  A    between atoms: C8_8  and  C10_10 
USER                              x       y       z     vdW  Elec       q    Type
USER                           _______ _______ _______ _____ _____    ______ ____
ROOT
ATOM      1  C1  MOL C   1      28.519  39.654  27.092 -0.59 -0.00    +0.000 C 
ENDROOT
BRANCH   1   2
ATOM      2  C2  MOL C   1      28.424  38.298  26.379 -0.44 -0.00    +0.000 C 
BRANCH   2   3
ATOM      3  C4  MOL C   1      27.687  37.323  27.356 -0.37 -0.00    +0.000 C 
BRANCH   3   4
ATOM      4  C6  MOL C   1      28.385  37.241  28.814 -0.23 -0.00    +0.000 C 
BRANCH   4   5
ATOM      5  C8  MOL C   1      29.518  36.252  28.970 -0.42 +0.00    -0.000 C 
BRANCH   5   6
ATOM      6  C10 MOL C   1      30.672  36.722  28.091 -0.27 +0.00    -0.005 C 
ATOM      7  C12 MOL C   1      30.636  36.330  26.645 -0.34 -0.00    +0.005 C 
ENDBRANCH   5   6
ENDBRANCH   4   5
ENDBRANCH   3   4
ENDBRANCH   2   3
ENDBRANCH   1   2
BRANCH   1   8
ATOM      8  C3  MOL C   1      29.601  39.440  28.225 -0.54 -0.00    +0.000 C 
BRANCH   8   9
ATOM      9  C5  MOL C   1      29.259  40.455  29.477 +0.36 -0.00    +0.000 C 
BRANCH   9  10
ATOM     10  C7  MOL C   1      27.835  40.304  30.132 -0.58 +0.00    -0.000 C 
BRANCH  10  11
ATOM     11  C9  MOL C   1      26.755  39.611  29.230 -0.05 +0.00    -0.005 C 
ATOM     12  C11 MOL C   1      26.288  40.674  28.175 +0.18 -0.00    +0.005 C 
ENDBRANCH  10  11
ENDBRANCH   9  10
ENDBRANCH   8   9
ENDBRANCH   1   8
TORSDOF 9
TER
ENDMDL
MODEL        2
USER    Run = 2
USER    DPF = lac1.dpf
USER  
USER    Estimated Free Energy of Binding    =   -2.24 kcal/mol  [=(1)+(2)+(3)-(4)]
USER    Estimated Inhibition Constant, Ki   =   22.83 mM (millimolar)  [Temperature = 298.15 K]
USER    
USER    (1) Final Intermolecular Energy     =   -4.74 kcal/mol
USER        vdW + Hbond + desolv Energy     =   -4.74 kcal/mol
USER        Electrostatic Energy            =   -0.00 kcal/mol
USER    (2) Final Total Internal Energy     =   -0.47 kcal/mol
USER    (3) Torsional Free Energy           =   +2.68 kcal/mol
USER    (4) Unbound System's Energy         =   -0.29 kcal/mol
USER    
USER    
USER    NEWDPF move PE_ligand.pdbqt
USER    NEWDPF about 3.037000 5.209000 3.149000
USER    NEWDPF tran0 27.570433 38.318992 27.466838
USER    NEWDPF quaternion0 0.406897 0.882379 -0.235193 0.022932
USER    NEWDPF axisangle0 0.407004 0.882611 -0.235255 177.371903
USER    NEWDPF quat0 0.407004 0.882611 -0.235255 177.371903
USER    NEWDPF dihe0 4.13 -6.41 95.14 158.72 23.60 -10.85 158.25 73.39 64.64 
USER  keepresnum = 1 
USER  
REMARK  9 active torsions:
REMARK  status: ('A' for Active; 'I' for Inactive)
REMARK    1  A    between atoms: C1_1  and  C2_2 
REMARK    2  A    between atoms: C1_1  and  C3_3 
REMARK    3  A    between atoms: C2_2  and  C4_4 
REMARK    4  A    between atoms: C3_3  and  C5_5 
REMARK    5  A    between atoms: C4_4  and  C6_6 
REMARK    6  A    between atoms: C5_5  and  C7_7 
REMARK    7  A    between atoms: C6_6  and  C8_8 
REMARK    8  A    between atoms: C7_7  and  C9_9 
REMARK    9  A    between atoms: C8_8  and  C10_10 
USER                              x       y       z     vdW  Elec       q    Type
USER                           _______ _______ _______ _____ _____    ______ ____
ROOT
ATOM      1  C1  MOL C   1      28.088  38.428  26.429 -0.44 -0.00    +0.000 C 
ENDROOT
BRANCH   1   2
ATOM      2  C2  MOL C   1      26.792  39.114  26.885 -0.45 -0.00    +0.000 C 
BRANCH   2   3
ATOM      3  C4  MOL C   1      27.212  40.399  27.671 -0.61 -0.00    +0.000 C 
BRANCH   3   4
ATOM      4  C6  MOL C   1      28.762  40.378  28.137 -0.27 -0.00    +0.000 C 
BRANCH   4   5
ATOM      5  C8  MOL C   1      29.151  39.331  29.156 -0.57 +0.00    -0.000 C 
BRANCH   5   6
ATOM      6  C10 MOL C   1      29.098  39.979  30.535 -0.52 +0.00    -0.005 C 
ATOM      7  C12 MOL C   1      27.780  40.542  30.977 -0.63 -0.00    +0.005 C 
ENDBRANCH   5   6
ENDBRANCH   4   5
ENDBRANCH   3   4
ENDBRANCH   2   3
ENDBRANCH   1   2
BRANCH   1   8
ATOM      8  C3  MOL C   1      27.756  36.883  26.448 -0.07 -0.00    +0.000 C 
BRANCH   8   9
ATOM      9  C5  MOL C   1      27.907  36.333  27.994 -0.48 -0.00    +0.000 C 
BRANCH   9  10
ATOM     10  C7  MOL C   1      29.370  36.256  28.570 -0.56 +0.00    -0.000 C 
BRANCH  10  11
ATOM     11  C9  MOL C   1      30.511  36.555  27.536 -0.43 +0.00    -0.005 C 
ATOM     12  C11 MOL C   1      31.872  36.250  28.254 +0.29 -0.00    +0.005 C 
ENDBRANCH  10  11
ENDBRANCH   9  10
ENDBRANCH   8   9
ENDBRANCH   1   8
TORSDOF 9
TER
ENDMDL
MODEL        3
USER    Run = 3
USER    DPF = lac1.dpf
USER  
USER    Estimated Free Energy of Binding    =   -2.74 kcal/mol  [=(1)+(2)+(3)-(4)]
USER    Estimated Inhibition Constant, Ki   =    9.73 mM (millimolar)  [Temperature = 298.15 K]
USER    
USER    (1) Final Intermolecular Energy     =   -5.48 kcal/mol
USER        vdW + Hbond + desolv Energy     =   -5.48 kcal/mol
USER        Electrostatic Energy            =   -0.00 kcal/mol
USER    (2) Final Total Internal Energy     =   -0.24 kcal/mol
USER    (3) Torsional Free Energy           =   +2.68 kcal/mol
USER    (4) Unbound System's Energy         =   -0.29 kcal/mol
USER    
USER    
USER    NEWDPF move PE_ligand.pdbqt
USER    NEWDPF about 3.037000 5.209000 3.149000
USER    NEWDPF tran0 27.695112 39.286314 27.286077
USER    NEWDPF quaternion0 0.585385 0.736086 0.096743 -0.325795
USER    NEWDPF axisangle0 0.619166 0.778564 0.102326 -141.972464
USER    NEWDPF quat0 0.619166 0.778564 0.102326 -141.972464
USER    NEWDPF dihe0 110.74 110.49 78.12 163.84 180.00 -10.87 -172.16 46.21 11.86 
USER  keepresnum = 1 
USER  
REMARK  9 active torsions:
REMARK  status: ('A' for Active; 'I' for Inactive)
REMARK    1  A    between atoms: C1_1  and  C2_2 
REMARK    2  A    between atoms: C1_1  and  C3_3 
REMARK    3  A    between atoms: C2_2  and  C4_4 
REMARK    4  A    between atoms: C3_3  and  C5_5 
REMARK    5  A    between atoms: C4_4  and  C6_6 
REMARK    6  A    between atoms: C5_5  and  C7_7 
REMARK    7  A    between atoms: C6_6  and  C8_8 
REMARK    8  A    between atoms: C7_7  and  C9_9 
REMARK    9  A    between atoms: C8_8  and  C10_10 
USER                              x       y       z     vdW  Elec       q    Type
USER                           _______ _______ _______ _____ _____    ______ ____
ROOT
ATOM      1  C1  MOL C   1      28.857  39.264  27.202 -0.55 -0.00    +0.000 C 
ENDROOT
BRANCH   1   2
ATOM      2  C2  MOL C   1      27.916  40.336  26.633 -0.29 -0.00    +0.000 C 
BRANCH   2   3
ATOM      3  C4  MOL C   1      26.689  40.419  27.599 -0.56 -0.00    +0.000 C 
BRANCH   3   4
ATOM      4  C6  MOL C   1      26.929  39.640  28.998 -0.44 -0.00    +0.000 C 
BRANCH   4   5
ATOM      5  C8  MOL C   1      27.520  40.447  30.131 -0.37 +0.00    -0.000 C 
BRANCH   5   6
ATOM      6  C10 MOL C   1      28.918  39.905  30.410 -0.51 +0.00    -0.005 C 
ATOM      7  C12 MOL C   1      29.817  40.739  31.272 -0.62 -0.00    +0.005 C 
ENDBRANCH   5   6
ENDBRANCH   4   5
ENDBRANCH   3   4
ENDBRANCH   2   3
ENDBRANCH   1   2
BRANCH   1   8
ATOM      8  C3  MOL C   1      28.465  37.936  26.438 -0.43 -0.00    +0.000 C 
BRANCH   8   9
ATOM      9  C5  MOL C   1      27.695  36.931  27.493 -0.36 -0.00    +0.000 C 
BRANCH   9  10
ATOM     10  C7  MOL C   1      28.583  36.287  28.621 -0.56 +0.00    -0.000 C 
BRANCH  10  11
ATOM     11  C9  MOL C   1      30.106  36.657  28.565 -0.34 +0.00    -0.005 C 
ATOM     12  C11 MOL C   1      30.625  36.252  27.141 -0.45 -0.00    +0.005 C 
ENDBRANCH  10  11
ENDBRANCH   9  10
ENDBRANCH   8   9
ENDBRANCH   1   8
TORSDOF 9
TER
ENDMDL
MODEL        4
USER    Run = 4
USER    DPF = lac1.dpf
USER  
USER    Estimated Free Energy of Binding    =   +0.15 kcal/mol  [=(1)+(2)+(3)-(4)]
USER    
USER    (1) Final Intermolecular Energy     =   -3.17 kcal/mol
USER        vdW + Hbond + desolv Energy     =   -3.17 kcal/mol
USER        Electrostatic Energy            =   +0.00 kcal/mol
USER    (2) Final Total Internal Energy     =   +0.35 kcal/mol
USER    (3) Torsional Free Energy           =   +2.68 kcal/mol
USER    (4) Unbound System's Energy         =   -0.29 kcal/mol
USER    
USER    
USER    NEWDPF move PE_ligand.pdbqt
USER    NEWDPF about 3.037000 5.209000 3.149000
USER    NEWDPF tran0 27.349032 40.342478 26.974068
USER    NEWDPF quaternion0 -0.391190 0.454800 -0.400419 0.692671
USER    NEWDPF axisangle0 -0.542375 0.630568 -0.555170 92.316185
USER    NEWDPF quat0 -0.542375 0.630568 -0.555170 92.316185
USER    NEWDPF dihe0 106.28 -61.46 11.63 62.69 95.41 -176.13 -11.00 130.33 161.15 
USER  keepresnum = 1 
USER  
REMARK  9 active torsions:
REMARK  status: ('A' for Active; 'I' for Inactive)
REMARK    1  A    between atoms: C1_1  and  C2_2 
REMARK    2  A    between atoms: C1_1  and  C3_3 
REMARK    3  A    between atoms: C2_2  and  C4_4 
REMARK    4  A    between atoms: C3_3  and  C5_5 
REMARK    5  A    between atoms: C4_4  and  C6_6 
REMARK    6  A    between atoms: C5_5  and  C7_7 
REMARK    7  A    between atoms: C6_6  and  C8_8 
REMARK    8  A    between atoms: C7_7  and  C9_9 
REMARK    9  A    between atoms: C8_8  and  C10_10 
USER                              x       y       z     vdW  Elec       q    Type
USER                           _______ _______ _______ _____ _____    ______ ____
ROOT
ATOM      1  C1  MOL C   1      26.281  39.960  27.240 -0.53 -0.00    +0.000 C 
ENDROOT
BRANCH   1   2
ATOM      2  C2  MOL C   1      27.411  40.287  28.227 -0.61 -0.00    +0.000 C 
BRANCH   2   3
ATOM      3  C4  MOL C   1      26.860  39.991  29.660 +0.18 -0.00    +0.000 C 
BRANCH   3   4
ATOM      4  C6  MOL C   1      27.988  40.129  30.813 -0.53 -0.00    +0.000 C 
BRANCH   4   5
ATOM      5  C8  MOL C   1      29.340  40.647  30.381 -0.13 +0.00    -0.000 C 
BRANCH   5   6
ATOM      6  C10 MOL C   1      30.244  40.675  31.609 -0.47 +0.01    -0.005 C 
ATOM      7  C12 MOL C   1      31.722  40.749  31.371 +0.92 -0.00    +0.005 C 
ENDBRANCH   5   6
ENDBRANCH   4   5
ENDBRANCH   3   4
ENDBRANCH   2   3
ENDBRANCH   1   2
BRANCH   1   8
ATOM      8  C3  MOL C   1      26.834  38.758  26.375 -0.38 -0.00    +0.000 C 
BRANCH   8   9
ATOM      9  C5  MOL C   1      28.481  38.807  26.399 -0.47 -0.00    +0.000 C 
BRANCH   9  10
ATOM     10  C7  MOL C   1      29.213  37.504  26.893 -0.46 +0.00    -0.000 C 
BRANCH  10  11
ATOM     11  C9  MOL C   1      29.771  37.567  28.358 -0.41 +0.00    -0.005 C 
ATOM     12  C11 MOL C   1      29.315  36.251  29.080 -0.28 -0.00    +0.005 C 
ENDBRANCH  10  11
ENDBRANCH   9  10
ENDBRANCH   8   9
ENDBRANCH   1   8
TORSDOF 9
TER
ENDMDL
MODEL        5
USER    Run = 5
USER    DPF = lac1.dpf
USER  
USER    Estimated Free Energy of Binding    =   +0.81 kcal/mol  [=(1)+(2)+(3)-(4)]
USER    
USER    (1) Final Intermolecular Energy     =   -1.89 kcal/mol
USER        vdW + Hbond + desolv Energy     =   -1.89 kcal/mol
USER        Electrostatic Energy            =   +0.00 kcal/mol
USER    (2) Final Total Internal Energy     =   -0.27 kcal/mol
USER    (3) Torsional Free Energy           =   +2.68 kcal/mol
USER    (4) Unbound System's Energy         =   -0.29 kcal/mol
USER    
USER    
USER    NEWDPF move PE_ligand.pdbqt
USER    NEWDPF about 3.037000 5.209000 3.149000
USER    NEWDPF tran0 29.057410 37.561277 27.920915
USER    NEWDPF quaternion0 0.752499 0.640165 -0.145298 0.053134
USER    NEWDPF axisangle0 0.753563 0.641070 -0.145503 173.908416
USER    NEWDPF quat0 0.753563 0.641070 -0.145503 173.908416
USER    NEWDPF dihe0 -176.52 29.59 84.33 -179.87 158.54 147.04 31.01 98.14 72.08 
USER  keepresnum = 1 
USER  
REMARK  9 active torsions:
REMARK  status: ('A' for Active; 'I' for Inactive)
REMARK    1  A    between atoms: C1_1  and  C2_2 
REMARK    2  A    between atoms: C1_1  and  C3_3 
REMARK    3  A    between atoms: C2_2  and  C4_4 
REMARK    4  A    between atoms: C3_3  and  C5_5 
REMARK    5  A    between atoms: C4_4  and  C6_6 
REMARK    6  A    between atoms: C5_5  and  C7_7 
REMARK    7  A    between atoms: C6_6  and  C8_8 
REMARK    8  A    between atoms: C7_7  and  C9_9 
REMARK    9  A    between atoms: C8_8  and  C10_10 
USER                              x       y       z     vdW  Elec       q    Type
USER                           _______ _______ _______ _____ _____    ______ ____
ROOT
ATOM      1  C1  MOL C   1      29.656  37.221  26.981 -0.47 -0.00    +0.000 C 
ENDROOT
BRANCH   1   2
ATOM      2  C2  MOL C   1      29.249  38.657  27.340 -0.51 -0.00    +0.000 C 
BRANCH   2   3
ATOM      3  C4  MOL C   1      30.429  39.270  28.164 +0.32 -0.00    +0.000 C 
BRANCH   3   4
ATOM      4  C6  MOL C   1      29.931  40.272  29.334 +0.81 -0.00    +0.000 C 
BRANCH   4   5
ATOM      5  C8  MOL C   1      29.206  39.643  30.502 +0.03 +0.00    -0.000 C 
BRANCH   5   6
ATOM      6  C10 MOL C   1      27.726  39.990  30.374 -0.43 +0.00    -0.005 C 
ATOM      7  C12 MOL C   1      27.099  40.746  31.507 +0.07 -0.00    +0.005 C 
ENDBRANCH   5   6
ENDBRANCH   4   5
ENDBRANCH   3   4
ENDBRANCH   2   3
ENDBRANCH   1   2
BRANCH   1   8
ATOM      8  C3  MOL C   1      28.290  36.454  26.773 -0.38 -0.00    +0.000 C 
BRANCH   8   9
ATOM      9  C5  MOL C   1      27.392  36.596  28.147 -0.37 -0.00    +0.000 C 
BRANCH   9  10
ATOM     10  C7  MOL C   1      26.472  37.869  28.253 -0.13 +0.00    -0.000 C 
BRANCH  10  11
ATOM     11  C9  MOL C   1      26.252  38.648  26.910 -0.29 +0.00    -0.005 C 
ATOM     12  C11 MOL C   1      26.373  40.177  27.241 -0.54 -0.00    +0.005 C 
ENDBRANCH  10  11
ENDBRANCH   9  10
ENDBRANCH   8   9
ENDBRANCH   1   8
TORSDOF 9
TER
ENDMDL
MODEL        6
USER    Run = 6
USER    DPF = lac1.dpf
USER  
USER    Estimated Free Energy of Binding    =   +2.03 kcal/mol  [=(1)+(2)+(3)-(4)]
USER    
USER    (1) Final Intermolecular Energy     =   -2.59 kcal/mol
USER        vdW + Hbond + desolv Energy     =   -2.58 kcal/mol
USER        Electrostatic Energy            =   -0.00 kcal/mol
USER    (2) Final Total Internal Energy     =   +1.64 kcal/mol
USER    (3) Torsional Free Energy           =   +2.68 kcal/mol
USER    (4) Unbound System's Energy         =   -0.29 kcal/mol
USER    
USER    
USER    NEWDPF move PE_ligand.pdbqt
USER    NEWDPF about 3.037000 5.209000 3.149000
USER    NEWDPF tran0 27.650581 38.646866 27.553485
USER    NEWDPF quaternion0 -0.658720 -0.105961 0.631189 0.395551
USER    NEWDPF axisangle0 -0.717213 -0.115370 0.687237 133.399300
USER    NEWDPF quat0 -0.717213 -0.115370 0.687237 133.399300
USER    NEWDPF dihe0 167.84 -6.97 -166.04 159.43 143.11 -5.80 -158.39 85.56 3.42 
USER  keepresnum = 1 
USER  
REMARK  9 active torsions:
REMARK  status: ('A' for Active; 'I' for Inactive)
REMARK    1  A    between atoms: C1_1  and  C2_2 
REMARK    2  A    between atoms: C1_1  and  C3_3 
REMARK    3  A    between atoms: C2_2  and  C4_4 
REMARK    4  A    between atoms: C3_3  and  C5_5 
REMARK    5  A    between atoms: C4_4  and  C6_6 
REMARK    6  A    between atoms: C5_5  and  C7_7 
REMARK    7  A    between atoms: C6_6  and  C8_8 
REMARK    8  A    between atoms: C7_7  and  C9_9 
REMARK    9  A    between atoms: C8_8  and  C10_10 
USER                              x       y       z     vdW  Elec       q    Type
USER                           _______ _______ _______ _____ _____    ______ ____
ROOT
ATOM      1  C1  MOL C   1      27.624  37.606  28.076 -0.41 -0.00    +0.000 C 
ENDROOT
BRANCH   1   2
ATOM      2  C2  MOL C   1      27.672  37.873  26.565 -0.35 -0.00    +0.000 C 
BRANCH   2   3
ATOM      3  C4  MOL C   1      28.276  39.304  26.377 -0.51 -0.00    +0.000 C 
BRANCH   3   4
ATOM      4  C6  MOL C   1      29.238  39.751  27.600 -0.37 -0.00    +0.000 C 
BRANCH   4   5
ATOM      5  C8  MOL C   1      30.364  38.808  27.957 +0.11 +0.00    -0.000 C 
BRANCH   5   6
ATOM      6  C10 MOL C   1      30.339  37.652  26.963 +0.37 +0.00    -0.005 C 
ATOM      7  C12 MOL C   1      30.526  36.270  27.513 -0.52 -0.00    +0.005 C 
ENDBRANCH   5   6
ENDBRANCH   4   5
ENDBRANCH   3   4
ENDBRANCH   2   3
ENDBRANCH   1   2
BRANCH   1   8
ATOM      8  C3  MOL C   1      26.250  38.228  28.553 +0.62 -0.00    +0.000 C 
BRANCH   8   9
ATOM      9  C5  MOL C   1      26.350  39.869  28.443 -0.43 -0.00    +0.000 C 
BRANCH   9  10
ATOM     10  C7  MOL C   1      27.385  40.572  29.399 -0.26 +0.00    -0.000 C 
BRANCH  10  11
ATOM     11  C9  MOL C   1      28.080  39.629  30.441 -0.15 +0.00    -0.005 C 
ATOM     12  C11 MOL C   1      28.931  40.542  31.391 -0.70 -0.00    +0.005 C 
ENDBRANCH  10  11
ENDBRANCH   9  10
ENDBRANCH   8   9
ENDBRANCH   1   8
TORSDOF 9
TER
ENDMDL
MODEL        7
USER    Run = 7
USER    DPF = lac1.dpf
USER  
USER    Estimated Free Energy of Binding    =   +0.43 kcal/mol  [=(1)+(2)+(3)-(4)]
USER    
USER    (1) Final Intermolecular Energy     =   -3.30 kcal/mol
USER        vdW + Hbond + desolv Energy     =   -3.29 kcal/mol
USER        Electrostatic Energy            =   -0.00 kcal/mol
USER    (2) Final Total Internal Energy     =   +0.75 kcal/mol
USER    (3) Torsional Free Energy           =   +2.68 kcal/mol
USER    (4) Unbound System's Energy         =   -0.29 kcal/mol
USER    
USER    
USER    NEWDPF move PE_ligand.pdbqt
USER    NEWDPF about 3.037000 5.209000 3.149000
USER    NEWDPF tran0 26.889323 38.320676 27.385418
USER    NEWDPF quaternion0 0.518632 0.448890 0.133222 -0.715382
USER    NEWDPF axisangle0 0.742245 0.642433 0.190662 -88.651050
USER    NEWDPF quat0 0.742245 0.642433 0.190662 -88.651050
USER    NEWDPF dihe0 120.14 -63.50 179.20 -157.39 176.37 95.62 157.07 -161.35 75.42 
USER  keepresnum = 1 
USER  
REMARK  9 active torsions:
REMARK  status: ('A' for Active; 'I' for Inactive)
REMARK    1  A    between atoms: C1_1  and  C2_2 
REMARK    2  A    between atoms: C1_1  and  C3_3 
REMARK    3  A    between atoms: C2_2  and  C4_4 
REMARK    4  A    between atoms: C3_3  and  C5_5 
REMARK    5  A    between atoms: C4_4  and  C6_6 
REMARK    6  A    between atoms: C5_5  and  C7_7 
REMARK    7  A    between atoms: C6_6  and  C8_8 
REMARK    8  A    between atoms: C7_7  and  C9_9 
REMARK    9  A    between atoms: C8_8  and  C10_10 
USER                              x       y       z     vdW  Elec       q    Type
USER                           _______ _______ _______ _____ _____    ______ ____
ROOT
ATOM      1  C1  MOL C   1      27.662  38.151  28.241 -0.43 -0.00    +0.000 C 
ENDROOT
BRANCH   1   2
ATOM      2  C2  MOL C   1      27.894  38.924  26.935 -0.49 -0.00    +0.000 C 
BRANCH   2   3
ATOM      3  C4  MOL C   1      27.626  40.433  27.247 -0.55 -0.00    +0.000 C 
BRANCH   3   4
ATOM      4  C6  MOL C   1      26.770  40.656  28.603 +0.07 -0.00    +0.000 C 
BRANCH   4   5
ATOM      5  C8  MOL C   1      27.553  40.735  29.894 -0.08 +0.00    -0.000 C 
BRANCH   5   6
ATOM      6  C10 MOL C   1      28.981  40.287  29.602 -0.38 +0.00    -0.005 C 
ATOM      7  C12 MOL C   1      29.971  40.377  30.725 -0.28 -0.00    +0.005 C 
ENDBRANCH   5   6
ENDBRANCH   4   5
ENDBRANCH   3   4
ENDBRANCH   2   3
ENDBRANCH   1   2
BRANCH   1   8
ATOM      8  C3  MOL C   1      27.372  36.665  27.785 -0.29 -0.00    +0.000 C 
BRANCH   8   9
ATOM      9  C5  MOL C   1      28.451  36.256  26.610 -0.40 -0.00    +0.000 C 
BRANCH   9  10
ATOM     10  C7  MOL C   1      29.906  36.838  26.762 -0.46 +0.00    -0.000 C 
BRANCH  10  11
ATOM     11  C9  MOL C   1      30.443  36.917  28.234 -0.30 +0.00    -0.005 C 
ATOM     12  C11 MOL C   1      31.863  36.251  28.241 +0.28 -0.00    +0.005 C 
ENDBRANCH  10  11
ENDBRANCH   9  10
ENDBRANCH   8   9
ENDBRANCH   1   8
TORSDOF 9
TER
ENDMDL
MODEL        8
USER    Run = 8
USER    DPF = lac1.dpf
USER  
USER    Estimated Free Energy of Binding    =   -1.14 kcal/mol  [=(1)+(2)+(3)-(4)]
USER    Estimated Inhibition Constant, Ki   =  146.19 mM (millimolar)  [Temperature = 298.15 K]
USER    
USER    (1) Final Intermolecular Energy     =   -3.78 kcal/mol
USER        vdW + Hbond + desolv Energy     =   -3.78 kcal/mol
USER        Electrostatic Energy            =   -0.00 kcal/mol
USER    (2) Final Total Internal Energy     =   -0.33 kcal/mol
USER    (3) Torsional Free Energy           =   +2.68 kcal/mol
USER    (4) Unbound System's Energy         =   -0.29 kcal/mol
USER    
USER    
USER    NEWDPF move PE_ligand.pdbqt
USER    NEWDPF about 3.037000 5.209000 3.149000
USER    NEWDPF tran0 29.044266 38.158856 28.301094
USER    NEWDPF quaternion0 -0.606582 0.313322 -0.561991 -0.466962
USER    NEWDPF axisangle0 -0.685964 0.354325 -0.635537 -124.325460
USER    NEWDPF quat0 -0.685964 0.354325 -0.635537 -124.325460
USER    NEWDPF dihe0 130.81 -163.43 -62.56 -145.86 -23.48 138.03 -163.36 60.74 28.23 
USER  keepresnum = 1 
USER  
REMARK  9 active torsions:
REMARK  status: ('A' for Active; 'I' for Inactive)
REMARK    1  A    between atoms: C1_1  and  C2_2 
REMARK    2  A    between atoms: C1_1  and  C3_3 
REMARK    3  A    between atoms: C2_2  and  C4_4 
REMARK    4  A    between atoms: C3_3  and  C5_5 
REMARK    5  A    between atoms: C4_4  and  C6_6 
REMARK    6  A    between atoms: C5_5  and  C7_7 
REMARK    7  A    between atoms: C6_6  and  C8_8 
REMARK    8  A    between atoms: C7_7  and  C9_9 
REMARK    9  A    between atoms: C8_8  and  C10_10 
USER                              x       y       z     vdW  Elec       q    Type
USER                           _______ _______ _______ _____ _____    ______ ____
ROOT
ATOM      1  C1  MOL C   1      29.892  38.098  27.504 -0.43 -0.00    +0.000 C 
ENDROOT
BRANCH   1   2
ATOM      2  C2  MOL C   1      29.642  37.113  28.656 -0.38 -0.00    +0.000 C 
BRANCH   2   3
ATOM      3  C4  MOL C   1      28.116  36.770  28.635 -0.40 -0.00    +0.000 C 
BRANCH   3   4
ATOM      4  C6  MOL C   1      27.422  37.055  27.200 -0.08 -0.00    +0.000 C 
BRANCH   4   5
ATOM      5  C8  MOL C   1      26.404  38.172  27.148 -0.08 +0.00    -0.000 C 
BRANCH   5   6
ATOM      6  C10 MOL C   1      27.041  39.350  26.419 -0.48 +0.00    -0.005 C 
ATOM      7  C12 MOL C   1      26.262  40.631  26.377 -0.44 -0.00    +0.005 C 
ENDBRANCH   5   6
ENDBRANCH   4   5
ENDBRANCH   3   4
ENDBRANCH   2   3
ENDBRANCH   1   2
BRANCH   1   8
ATOM      8  C3  MOL C   1      30.231  39.470  28.213 -0.01 -0.00    +0.000 C 
BRANCH   8   9
ATOM      9  C5  MOL C   1      28.845  40.352  28.338 -0.26 -0.00    +0.000 C 
BRANCH   9  10
ATOM     10  C7  MOL C   1      27.860  39.947  29.497 -0.61 +0.00    -0.000 C 
BRANCH  10  11
ATOM     11  C9  MOL C   1      28.523  39.771  30.907 -0.15 +0.00    -0.005 C 
ATOM     12  C11 MOL C   1      29.751  40.746  30.962 -0.47 -0.00    +0.005 C 
ENDBRANCH  10  11
ENDBRANCH   9  10
ENDBRANCH   8   9
ENDBRANCH   1   8
TORSDOF 9
TER
ENDMDL
MODEL        9
USER    Run = 9
USER    DPF = lac1.dpf
USER  
USER    Estimated Free Energy of Binding    =   -1.05 kcal/mol  [=(1)+(2)+(3)-(4)]
USER    Estimated Inhibition Constant, Ki   =  169.35 mM (millimolar)  [Temperature = 298.15 K]
USER    
USER    (1) Final Intermolecular Energy     =   -4.52 kcal/mol
USER        vdW + Hbond + desolv Energy     =   -4.52 kcal/mol
USER        Electrostatic Energy            =   -0.00 kcal/mol
USER    (2) Final Total Internal Energy     =   +0.50 kcal/mol
USER    (3) Torsional Free Energy           =   +2.68 kcal/mol
USER    (4) Unbound System's Energy         =   -0.29 kcal/mol
USER    
USER    
USER    NEWDPF move PE_ligand.pdbqt
USER    NEWDPF about 3.037000 5.209000 3.149000
USER    NEWDPF tran0 28.128053 39.120355 27.556834
USER    NEWDPF quaternion0 -0.105824 -0.929320 -0.012656 0.353562
USER    NEWDPF axisangle0 -0.113131 -0.993488 -0.013529 138.589306
USER    NEWDPF quat0 -0.113131 -0.993488 -0.013529 138.589306
USER    NEWDPF dihe0 162.34 -163.11 72.79 -168.37 180.00 136.99 135.72 60.92 43.73 
USER  keepresnum = 1 
USER  
REMARK  9 active torsions:
REMARK  status: ('A' for Active; 'I' for Inactive)
REMARK    1  A    between atoms: C1_1  and  C2_2 
REMARK    2  A    between atoms: C1_1  and  C3_3 
REMARK    3  A    between atoms: C2_2  and  C4_4 
REMARK    4  A    between atoms: C3_3  and  C5_5 
REMARK    5  A    between atoms: C4_4  and  C6_6 
REMARK    6  A    between atoms: C5_5  and  C7_7 
REMARK    7  A    between atoms: C6_6  and  C8_8 
REMARK    8  A    between atoms: C7_7  and  C9_9 
REMARK    9  A    between atoms: C8_8  and  C10_10 
USER                              x       y       z     vdW  Elec       q    Type
USER                           _______ _______ _______ _____ _____    ______ ____
ROOT
ATOM      1  C1  MOL C   1      28.873  39.916  27.145 -0.49 -0.00    +0.000 C 
ENDROOT
BRANCH   1   2
ATOM      2  C2  MOL C   1      27.544  39.487  26.508 -0.53 -0.00    +0.000 C 
BRANCH   2   3
ATOM      3  C4  MOL C   1      26.412  39.878  27.513 -0.54 -0.00    +0.000 C 
BRANCH   3   4
ATOM      4  C6  MOL C   1      26.814  39.608  29.058 -0.31 -0.00    +0.000 C 
BRANCH   4   5
ATOM      5  C8  MOL C   1      27.479  40.748  29.795 -0.01 +0.00    -0.000 C 
BRANCH   5   6
ATOM      6  C10 MOL C   1      28.872  40.287  30.209 -0.59 +0.00    -0.005 C 
ATOM      7  C12 MOL C   1      29.372  40.733  31.550 -0.69 -0.00    +0.005 C 
ENDBRANCH   5   6
ENDBRANCH   4   5
ENDBRANCH   3   4
ENDBRANCH   2   3
ENDBRANCH   1   2
BRANCH   1   8
ATOM      8  C3  MOL C   1      29.769  38.614  27.127 -0.10 -0.00    +0.000 C 
BRANCH   8   9
ATOM      9  C5  MOL C   1      29.604  37.842  28.573 -0.41 -0.00    +0.000 C 
BRANCH   9  10
ATOM     10  C7  MOL C   1      28.282  37.011  28.775 -0.23 +0.00    -0.000 C 
BRANCH  10  11
ATOM     11  C9  MOL C   1      27.613  36.489  27.457 -0.21 +0.00    -0.005 C 
ATOM     12  C11 MOL C   1      28.765  36.250  26.419 -0.42 -0.00    +0.005 C 
ENDBRANCH  10  11
ENDBRANCH   9  10
ENDBRANCH   8   9
ENDBRANCH   1   8
TORSDOF 9
TER
ENDMDL
MODEL       10
USER    Run = 10
USER    DPF = lac1.dpf
USER  
USER    Estimated Free Energy of Binding    =   +0.46 kcal/mol  [=(1)+(2)+(3)-(4)]
USER    
USER    (1) Final Intermolecular Energy     =   -3.70 kcal/mol
USER        vdW + Hbond + desolv Energy     =   -3.69 kcal/mol
USER        Electrostatic Energy            =   -0.00 kcal/mol
USER    (2) Final Total Internal Energy     =   +1.19 kcal/mol
USER    (3) Torsional Free Energy           =   +2.68 kcal/mol
USER    (4) Unbound System's Energy         =   -0.29 kcal/mol
USER    
USER    
USER    NEWDPF move PE_ligand.pdbqt
USER    NEWDPF about 3.037000 5.209000 3.149000
USER    NEWDPF tran0 27.615790 39.358737 27.811091
USER    NEWDPF quaternion0 -0.529221 -0.845966 -0.048245 0.044045
USER    NEWDPF axisangle0 -0.529735 -0.846788 -0.048292 174.951180
USER    NEWDPF quat0 -0.529735 -0.846788 -0.048292 174.951180
USER    NEWDPF dihe0 54.20 165.75 -119.74 107.18 157.05 4.07 154.75 67.80 29.84 
USER  keepresnum = 1 
USER  
REMARK  9 active torsions:
REMARK  status: ('A' for Active; 'I' for Inactive)
REMARK    1  A    between atoms: C1_1  and  C2_2 
REMARK    2  A    between atoms: C1_1  and  C3_3 
REMARK    3  A    between atoms: C2_2  and  C4_4 
REMARK    4  A    between atoms: C3_3  and  C5_5 
REMARK    5  A    between atoms: C4_4  and  C6_6 
REMARK    6  A    between atoms: C5_5  and  C7_7 
REMARK    7  A    between atoms: C6_6  and  C8_8 
REMARK    8  A    between atoms: C7_7  and  C9_9 
REMARK    9  A    between atoms: C8_8  and  C10_10 
USER                              x       y       z     vdW  Elec       q    Type
USER                           _______ _______ _______ _____ _____    ______ ____
ROOT
ATOM      1  C1  MOL C   1      28.540  39.669  27.174 -0.59 -0.00    +0.000 C 
ENDROOT
BRANCH   1   2
ATOM      2  C2  MOL C   1      27.275  40.503  27.423 -0.58 -0.00    +0.000 C 
BRANCH   2   3
ATOM      3  C4  MOL C   1      27.019  40.486  28.966 -0.21 -0.00    +0.000 C 
BRANCH   3   4
ATOM      4  C6  MOL C   1      27.750  39.252  29.716 +0.29 -0.00    +0.000 C 
BRANCH   4   5
ATOM      5  C8  MOL C   1      29.261  39.283  29.758 -0.20 +0.00    -0.000 C 
BRANCH   5   6
ATOM      6  C10 MOL C   1      29.686  40.663  30.247 +0.46 +0.00    -0.005 C 
ATOM      7  C12 MOL C   1      30.287  40.750  31.618 -0.53 -0.01    +0.005 C 
ENDBRANCH   5   6
ENDBRANCH   4   5
ENDBRANCH   3   4
ENDBRANCH   2   3
ENDBRANCH   1   2
BRANCH   1   8
ATOM      8  C3  MOL C   1      28.035  38.394  26.387 -0.43 -0.00    +0.000 C 
BRANCH   8   9
ATOM      9  C5  MOL C   1      27.570  37.252  27.480 -0.36 -0.00    +0.000 C 
BRANCH   9  10
ATOM     10  C7  MOL C   1      28.645  36.828  28.549 -0.51 +0.00    -0.000 C 
BRANCH  10  11
ATOM     11  C9  MOL C   1      29.981  36.254  27.962 -0.56 +0.00    -0.005 C 
ATOM     12  C11 MOL C   1      29.834  36.255  26.400 -0.48 -0.00    +0.005 C 
ENDBRANCH  10  11
ENDBRANCH   9  10
ENDBRANCH   8   9
ENDBRANCH   1   8
TORSDOF 9
TER
ENDMDL
MODEL       11
USER    Run = 11
USER    DPF = lac1.dpf
USER  
USER    Estimated Free Energy of Binding    =   +1.17 kcal/mol  [=(1)+(2)+(3)-(4)]
USER    
USER    (1) Final Intermolecular Energy     =   -1.21 kcal/mol
USER        vdW + Hbond + desolv Energy     =   -1.21 kcal/mol
USER        Electrostatic Energy            =   -0.00 kcal/mol
USER    (2) Final Total Internal Energy     =   -0.59 kcal/mol
USER    (3) Torsional Free Energy           =   +2.68 kcal/mol
USER    (4) Unbound System's Energy         =   -0.29 kcal/mol
USER    
USER    
USER    NEWDPF move PE_ligand.pdbqt
USER    NEWDPF about 3.037000 5.209000 3.149000
USER    NEWDPF tran0 27.608558 39.632986 28.096262
USER    NEWDPF quaternion0 0.233374 0.947670 0.026844 0.216189
USER    NEWDPF axisangle0 0.239027 0.970624 0.027494 155.029371
USER    NEWDPF quat0 0.239027 0.970624 0.027494 155.029371
USER    NEWDPF dihe0 -8.75 63.64 -117.34 179.95 171.78 179.77 116.11 24.71 35.01 
USER  keepresnum = 1 
USER  
REMARK  9 active torsions:
REMARK  status: ('A' for Active; 'I' for Inactive)
REMARK    1  A    between atoms: C1_1  and  C2_2 
REMARK    2  A    between atoms: C1_1  and  C3_3 
REMARK    3  A    between atoms: C2_2  and  C4_4 
REMARK    4  A    between atoms: C3_3  and  C5_5 
REMARK    5  A    between atoms: C4_4  and  C6_6 
REMARK    6  A    between atoms: C5_5  and  C7_7 
REMARK    7  A    between atoms: C6_6  and  C8_8 
REMARK    8  A    between atoms: C7_7  and  C9_9 
REMARK    9  A    between atoms: C8_8  and  C10_10 
USER                              x       y       z     vdW  Elec       q    Type
USER                           _______ _______ _______ _____ _____    ______ ____
ROOT
ATOM      1  C1  MOL C   1      27.792  40.481  27.319 -0.51 -0.00    +0.000 C 
ENDROOT
BRANCH   1   2
ATOM      2  C2  MOL C   1      26.576  40.331  28.245 -0.45 -0.00    +0.000 C 
BRANCH   2   3
ATOM      3  C4  MOL C   1      27.128  40.219  29.704 -0.08 -0.00    +0.000 C 
BRANCH   3   4
ATOM      4  C6  MOL C   1      28.127  38.963  29.908 +1.08 -0.00    +0.000 C 
BRANCH   4   5
ATOM      5  C8  MOL C   1      29.565  39.163  29.488 +0.17 +0.00    -0.000 C 
BRANCH   5   6
ATOM      6  C10 MOL C   1      30.073  40.437  30.154 +0.72 +0.00    -0.005 C 
ATOM      7  C12 MOL C   1      29.785  40.608  31.616 -0.54 -0.01    +0.005 C 
ENDBRANCH   5   6
ENDBRANCH   4   5
ENDBRANCH   3   4
ENDBRANCH   2   3
ENDBRANCH   1   2
BRANCH   1   8
ATOM      8  C3  MOL C   1      27.747  39.208  26.383 -0.50 -0.00    +0.000 C 
BRANCH   8   9
ATOM      9  C5  MOL C   1      29.236  38.503  26.384 -0.07 -0.00    +0.000 C 
BRANCH   9  10
ATOM     10  C7  MOL C   1      29.305  37.015  26.892 -0.47 +0.00    -0.000 C 
BRANCH  10  11
ATOM     11  C9  MOL C   1      27.924  36.281  26.999 -0.22 +0.00    -0.005 C 
ATOM     12  C11 MOL C   1      27.534  36.254  28.519 -0.33 -0.00    +0.005 C 
ENDBRANCH  10  11
ENDBRANCH   9  10
ENDBRANCH   8   9
ENDBRANCH   1   8
TORSDOF 9
TER
ENDMDL
MODEL       12
USER    Run = 12
USER    DPF = lac1.dpf
USER  
USER    Estimated Free Energy of Binding    =   -1.35 kcal/mol  [=(1)+(2)+(3)-(4)]
USER    Estimated Inhibition Constant, Ki   =  103.04 mM (millimolar)  [Temperature = 298.15 K]
USER    
USER    (1) Final Intermolecular Energy     =   -3.93 kcal/mol
USER        vdW + Hbond + desolv Energy     =   -3.93 kcal/mol
USER        Electrostatic Energy            =   -0.00 kcal/mol
USER    (2) Final Total Internal Energy     =   -0.39 kcal/mol
USER    (3) Torsional Free Energy           =   +2.68 kcal/mol
USER    (4) Unbound System's Energy         =   -0.29 kcal/mol
USER    
USER    
USER    NEWDPF move PE_ligand.pdbqt
USER    NEWDPF about 3.037000 5.209000 3.149000
USER    NEWDPF tran0 28.467542 38.680748 26.987091
USER    NEWDPF quaternion0 -0.428596 -0.708027 -0.395324 0.398399
USER    NEWDPF axisangle0 -0.467281 -0.771934 -0.431007 133.043726
USER    NEWDPF quat0 -0.467281 -0.771934 -0.431007 133.043726
USER    NEWDPF dihe0 143.63 178.50 111.01 57.65 -179.85 99.39 -179.56 51.67 50.37 
USER  keepresnum = 1 
USER  
REMARK  9 active torsions:
REMARK  status: ('A' for Active; 'I' for Inactive)
REMARK    1  A    between atoms: C1_1  and  C2_2 
REMARK    2  A    between atoms: C1_1  and  C3_3 
REMARK    3  A    between atoms: C2_2  and  C4_4 
REMARK    4  A    between atoms: C3_3  and  C5_5 
REMARK    5  A    between atoms: C4_4  and  C6_6 
REMARK    6  A    between atoms: C5_5  and  C7_7 
REMARK    7  A    between atoms: C6_6  and  C8_8 
REMARK    8  A    between atoms: C7_7  and  C9_9 
REMARK    9  A    between atoms: C8_8  and  C10_10 
USER                              x       y       z     vdW  Elec       q    Type
USER                           _______ _______ _______ _____ _____    ______ ____
ROOT
ATOM      1  C1  MOL C   1      29.443  39.027  27.521 -0.49 -0.00    +0.000 C 
ENDROOT
BRANCH   1   2
ATOM      2  C2  MOL C   1      28.481  39.905  26.709 -0.55 -0.00    +0.000 C 
BRANCH   2   3
ATOM      3  C4  MOL C   1      27.164  40.026  27.544 -0.59 -0.00    +0.000 C 
BRANCH   3   4
ATOM      4  C6  MOL C   1      27.272  39.331  29.002 -0.36 -0.00    +0.000 C 
BRANCH   4   5
ATOM      5  C8  MOL C   1      27.741  40.209  30.140 -0.55 +0.00    -0.000 C 
BRANCH   5   6
ATOM      6  C10 MOL C   1      29.259  40.314  30.054 -0.47 +0.00    -0.005 C 
ATOM      7  C12 MOL C   1      29.987  40.748  31.291 -0.58 -0.00    +0.005 C 
ENDBRANCH   5   6
ENDBRANCH   4   5
ENDBRANCH   3   4
ENDBRANCH   2   3
ENDBRANCH   1   2
BRANCH   1   8
ATOM      8  C3  MOL C   1      30.013  37.982  26.480 +0.51 -0.00    +0.000 C 
BRANCH   8   9
ATOM      9  C5  MOL C   1      29.260  36.537  26.720 -0.46 -0.00    +0.000 C 
BRANCH   9  10
ATOM     10  C7  MOL C   1      27.720  36.594  27.038 -0.13 +0.00    -0.000 C 
BRANCH  10  11
ATOM     11  C9  MOL C   1      27.330  36.258  28.520 -0.21 +0.00    -0.005 C 
ATOM     12  C11 MOL C   1      28.659  36.252  29.354 -0.05 -0.00    +0.005 C 
ENDBRANCH  10  11
ENDBRANCH   9  10
ENDBRANCH   8   9
ENDBRANCH   1   8
TORSDOF 9
TER
ENDMDL
MODEL       13
USER    Run = 13
USER    DPF = lac1.dpf
USER  
USER    Estimated Free Energy of Binding    =   -2.37 kcal/mol  [=(1)+(2)+(3)-(4)]
USER    Estimated Inhibition Constant, Ki   =   18.16 mM (millimolar)  [Temperature = 298.15 K]
USER    
USER    (1) Final Intermolecular Energy     =   -5.48 kcal/mol
USER        vdW + Hbond + desolv Energy     =   -5.48 kcal/mol
USER        Electrostatic Energy            =   +0.00 kcal/mol
USER    (2) Final Total Internal Energy     =   +0.13 kcal/mol
USER    (3) Torsional Free Energy           =   +2.68 kcal/mol
USER    (4) Unbound System's Energy         =   -0.29 kcal/mol
USER    
USER    
USER    NEWDPF move PE_ligand.pdbqt
USER    NEWDPF about 3.037000 5.209000 3.149000
USER    NEWDPF tran0 27.572471 39.331361 27.512509
USER    NEWDPF quaternion0 0.653222 0.648018 -0.360461 -0.153103
USER    NEWDPF axisangle0 0.661016 0.655749 -0.364762 -162.386396
USER    NEWDPF quat0 0.661016 0.655749 -0.364762 -162.386396
USER    NEWDPF dihe0 -63.55 -179.98 116.69 69.92 -127.50 95.00 151.64 -18.63 -0.35 
USER  keepresnum = 1 
USER  
REMARK  9 active torsions:
REMARK  status: ('A' for Active; 'I' for Inactive)
REMARK    1  A    between atoms: C1_1  and  C2_2 
REMARK    2  A    between atoms: C1_1  and  C3_3 
REMARK    3  A    between atoms: C2_2  and  C4_4 
REMARK    4  A    between atoms: C3_3  and  C5_5 
REMARK    5  A    between atoms: C4_4  and  C6_6 
REMARK    6  A    between atoms: C5_5  and  C7_7 
REMARK    7  A    between atoms: C6_6  and  C8_8 
REMARK    8  A    between atoms: C7_7  and  C9_9 
REMARK    9  A    between atoms: C8_8  and  C10_10 
USER                              x       y       z     vdW  Elec       q    Type
USER                           _______ _______ _______ _____ _____    ______ ____
ROOT
ATOM      1  C1  MOL C   1      28.216  38.645  26.825 -0.47 -0.00    +0.000 C 
ENDROOT
BRANCH   1   2
ATOM      2  C2  MOL C   1      27.489  39.934  26.414 -0.56 -0.00    +0.000 C 
BRANCH   2   3
ATOM      3  C4  MOL C   1      27.199  40.729  27.730 -0.54 -0.00    +0.000 C 
BRANCH   3   4
ATOM      4  C6  MOL C   1      27.153  39.785  29.044 -0.50 -0.00    +0.000 C 
BRANCH   4   5
ATOM      5  C8  MOL C   1      27.726  40.366  30.317 -0.58 +0.00    -0.000 C 
BRANCH   5   6
ATOM      6  C10 MOL C   1      29.245  40.363  30.189 -0.51 +0.00    -0.005 C 
ATOM      7  C12 MOL C   1      29.832  39.660  29.002 -0.17 -0.00    +0.005 C 
ENDBRANCH   5   6
ENDBRANCH   4   5
ENDBRANCH   3   4
ENDBRANCH   2   3
ENDBRANCH   1   2
BRANCH   1   8
ATOM      8  C3  MOL C   1      27.065  37.654  27.262 -0.15 -0.00    +0.000 C 
BRANCH   8   9
ATOM      9  C5  MOL C   1      27.753  36.293  27.887 -0.45 -0.00    +0.000 C 
BRANCH   9  10
ATOM     10  C7  MOL C   1      29.081  36.494  28.708 -0.50 +0.00    -0.000 C 
BRANCH  10  11
ATOM     11  C9  MOL C   1      30.406  36.280  27.898 -0.56 +0.00    -0.005 C 
ATOM     12  C11 MOL C   1      30.017  36.257  26.378 -0.49 -0.00    +0.005 C 
ENDBRANCH  10  11
ENDBRANCH   9  10
ENDBRANCH   8   9
ENDBRANCH   1   8
TORSDOF 9
TER
ENDMDL
MODEL       14
USER    Run = 14
USER    DPF = lac1.dpf
USER  
USER    Estimated Free Energy of Binding    =   +0.57 kcal/mol  [=(1)+(2)+(3)-(4)]
USER    
USER    (1) Final Intermolecular Energy     =   -3.29 kcal/mol
USER        vdW + Hbond + desolv Energy     =   -3.29 kcal/mol
USER        Electrostatic Energy            =   -0.00 kcal/mol
USER    (2) Final Total Internal Energy     =   +0.89 kcal/mol
USER    (3) Torsional Free Energy           =   +2.68 kcal/mol
USER    (4) Unbound System's Energy         =   -0.29 kcal/mol
USER    
USER    
USER    NEWDPF move PE_ligand.pdbqt
USER    NEWDPF about 3.037000 5.209000 3.149000
USER    NEWDPF tran0 28.709321 37.347442 27.782987
USER    NEWDPF quaternion0 0.778623 -0.127169 0.501876 0.354534
USER    NEWDPF axisangle0 0.832714 -0.136003 0.536741 138.470186
USER    NEWDPF quat0 0.832714 -0.136003 0.536741 138.470186
USER    NEWDPF dihe0 115.75 -44.31 146.82 -96.14 11.81 -65.59 -171.90 177.20 8.29 
USER  keepresnum = 1 
USER  
REMARK  9 active torsions:
REMARK  status: ('A' for Active; 'I' for Inactive)
REMARK    1  A    between atoms: C1_1  and  C2_2 
REMARK    2  A    between atoms: C1_1  and  C3_3 
REMARK    3  A    between atoms: C2_2  and  C4_4 
REMARK    4  A    between atoms: C3_3  and  C5_5 
REMARK    5  A    between atoms: C4_4  and  C6_6 
REMARK    6  A    between atoms: C5_5  and  C7_7 
REMARK    7  A    between atoms: C6_6  and  C8_8 
REMARK    8  A    between atoms: C7_7  and  C9_9 
REMARK    9  A    between atoms: C8_8  and  C10_10 
USER                              x       y       z     vdW  Elec       q    Type
USER                           _______ _______ _______ _____ _____    ______ ____
ROOT
ATOM      1  C1  MOL C   1      29.459  37.102  26.926 -0.47 -0.00    +0.000 C 
ENDROOT
BRANCH   1   2
ATOM      2  C2  MOL C   1      29.616  36.748  28.412 -0.52 -0.00    +0.000 C 
BRANCH   2   3
ATOM      3  C4  MOL C   1      28.173  36.612  29.000 -0.10 -0.00    +0.000 C 
BRANCH   3   4
ATOM      4  C6  MOL C   1      27.027  36.550  27.858 +0.09 -0.00    +0.000 C 
BRANCH   4   5
ATOM      5  C8  MOL C   1      26.641  37.860  27.211 +0.10 +0.00    -0.000 C 
BRANCH   5   6
ATOM      6  C10 MOL C   1      26.508  38.904  28.315 -0.39 +0.00    -0.005 C 
ATOM      7  C12 MOL C   1      26.326  40.331  27.890 -0.48 -0.00    +0.005 C 
ENDBRANCH   5   6
ENDBRANCH   4   5
ENDBRANCH   3   4
ENDBRANCH   2   3
ENDBRANCH   1   2
BRANCH   1   8
ATOM      8  C3  MOL C   1      29.449  38.682  26.885 -0.14 -0.00    +0.000 C 
BRANCH   8   9
ATOM      9  C5  MOL C   1      30.183  39.247  28.247 -0.17 -0.00    +0.000 C 
BRANCH   9  10
ATOM     10  C7  MOL C   1      29.352  40.257  29.123 -0.09 +0.00    -0.000 C 
BRANCH  10  11
ATOM     11  C9  MOL C   1      28.622  39.626  30.359 -0.36 +0.00    -0.005 C 
ATOM     12  C11 MOL C   1      28.559  40.732  31.470 -0.76 -0.00    +0.005 C 
ENDBRANCH  10  11
ENDBRANCH   9  10
ENDBRANCH   8   9
ENDBRANCH   1   8
TORSDOF 9
TER
ENDMDL
MODEL       15
USER    Run = 15
USER    DPF = lac1.dpf
USER  
USER    Estimated Free Energy of Binding    =   -1.75 kcal/mol  [=(1)+(2)+(3)-(4)]
USER    Estimated Inhibition Constant, Ki   =   52.54 mM (millimolar)  [Temperature = 298.15 K]
USER    
USER    (1) Final Intermolecular Energy     =   -4.02 kcal/mol
USER        vdW + Hbond + desolv Energy     =   -4.02 kcal/mol
USER        Electrostatic Energy            =   -0.00 kcal/mol
USER    (2) Final Total Internal Energy     =   -0.70 kcal/mol
USER    (3) Torsional Free Energy           =   +2.68 kcal/mol
USER    (4) Unbound System's Energy         =   -0.29 kcal/mol
USER    
USER    
USER    NEWDPF move PE_ligand.pdbqt
USER    NEWDPF about 3.037000 5.209000 3.149000
USER    NEWDPF tran0 26.763964 39.004801 27.718521
USER    NEWDPF quaternion0 0.536813 -0.582729 -0.204265 0.574921
USER    NEWDPF axisangle0 0.656083 -0.712201 -0.249649 109.811821
USER    NEWDPF quat0 0.656083 -0.712201 -0.249649 109.811821
USER    NEWDPF dihe0 -113.23 0.14 95.51 169.93 117.94 -138.08 -51.07 47.56 -117.64 
USER  keepresnum = 1 
USER  
REMARK  9 active torsions:
REMARK  status: ('A' for Active; 'I' for Inactive)
REMARK    1  A    between atoms: C1_1  and  C2_2 
REMARK    2  A    between atoms: C1_1  and  C3_3 
REMARK    3  A    between atoms: C2_2  and  C4_4 
REMARK    4  A    between atoms: C3_3  and  C5_5 
REMARK    5  A    between atoms: C4_4  and  C6_6 
REMARK    6  A    between atoms: C5_5  and  C7_7 
REMARK    7  A    between atoms: C6_6  and  C8_8 
REMARK    8  A    between atoms: C7_7  and  C9_9 
REMARK    9  A    between atoms: C8_8  and  C10_10 
USER                              x       y       z     vdW  Elec       q    Type
USER                           _______ _______ _______ _____ _____    ______ ____
ROOT
ATOM      1  C1  MOL C   1      26.326  39.995  27.289 -0.53 -0.00    +0.000 C 
ENDROOT
BRANCH   1   2
ATOM      2  C2  MOL C   1      27.093  38.917  26.510 -0.44 -0.00    +0.000 C 
BRANCH   2   3
ATOM      3  C4  MOL C   1      28.574  39.407  26.400 -0.43 -0.00    +0.000 C 
BRANCH   3   4
ATOM      4  C6  MOL C   1      29.651  38.253  26.760 -0.18 -0.00    +0.000 C 
BRANCH   4   5
ATOM      5  C8  MOL C   1      29.231  36.825  26.495 -0.45 +0.00    -0.000 C 
BRANCH   5   6
ATOM      6  C10 MOL C   1      28.677  36.253  27.795 -0.50 +0.00    -0.005 C 
ATOM      7  C12 MOL C   1      29.584  36.261  28.989 -0.39 -0.00    +0.005 C 
ENDBRANCH   5   6
ENDBRANCH   4   5
ENDBRANCH   3   4
ENDBRANCH   2   3
ENDBRANCH   1   2
BRANCH   1   8
ATOM      8  C3  MOL C   1      27.365  40.548  28.344 -0.53 -0.00    +0.000 C 
BRANCH   8   9
ATOM      9  C5  MOL C   1      26.939  40.000  29.838 +0.19 -0.00    +0.000 C 
BRANCH   9  10
ATOM     10  C7  MOL C   1      28.050  40.067  30.951 -0.50 +0.00    -0.000 C 
BRANCH  10  11
ATOM     11  C9  MOL C   1      29.393  40.749  30.515 -0.19 +0.00    -0.005 C 
ATOM     12  C11 MOL C   1      30.460  40.407  31.612 -0.08 -0.01    +0.005 C 
ENDBRANCH  10  11
ENDBRANCH   9  10
ENDBRANCH   8   9
ENDBRANCH   1   8
TORSDOF 9
TER
ENDMDL
MODEL       16
USER    Run = 16
USER    DPF = lac1.dpf
USER  
USER    Estimated Free Energy of Binding    =   -2.16 kcal/mol  [=(1)+(2)+(3)-(4)]
USER    Estimated Inhibition Constant, Ki   =   25.98 mM (millimolar)  [Temperature = 298.15 K]
USER    
USER    (1) Final Intermolecular Energy     =   -5.98 kcal/mol
USER        vdW + Hbond + desolv Energy     =   -5.98 kcal/mol
USER        Electrostatic Energy            =   -0.00 kcal/mol
USER    (2) Final Total Internal Energy     =   +0.84 kcal/mol
USER    (3) Torsional Free Energy           =   +2.68 kcal/mol
USER    (4) Unbound System's Energy         =   -0.29 kcal/mol
USER    
USER    
USER    NEWDPF move PE_ligand.pdbqt
USER    NEWDPF about 3.037000 5.209000 3.149000
USER    NEWDPF tran0 27.676774 39.356221 27.255541
USER    NEWDPF quaternion0 -0.280444 -0.936243 0.065306 0.201335
USER    NEWDPF axisangle0 -0.286307 -0.955815 0.066671 156.769926
USER    NEWDPF quat0 -0.286307 -0.955815 0.066671 156.769926
USER    NEWDPF dihe0 168.71 128.63 27.74 147.15 -2.57 -50.38 -136.15 94.02 2.58 
USER  keepresnum = 1 
USER  
REMARK  9 active torsions:
REMARK  status: ('A' for Active; 'I' for Inactive)
REMARK    1  A    between atoms: C1_1  and  C2_2 
REMARK    2  A    between atoms: C1_1  and  C3_3 
REMARK    3  A    between atoms: C2_2  and  C4_4 
REMARK    4  A    between atoms: C3_3  and  C5_5 
REMARK    5  A    between atoms: C4_4  and  C6_6 
REMARK    6  A    between atoms: C5_5  and  C7_7 
REMARK    7  A    between atoms: C6_6  and  C8_8 
REMARK    8  A    between atoms: C7_7  and  C9_9 
REMARK    9  A    between atoms: C8_8  and  C10_10 
USER                              x       y       z     vdW  Elec       q    Type
USER                           _______ _______ _______ _____ _____    ______ ____
ROOT
ATOM      1  C1  MOL C   1      28.502  39.855  26.601 -0.52 -0.00    +0.000 C 
ENDROOT
BRANCH   1   2
ATOM      2  C2  MOL C   1      26.983  39.979  26.415 -0.55 -0.00    +0.000 C 
BRANCH   2   3
ATOM      3  C4  MOL C   1      26.328  39.641  27.795 -0.52 -0.00    +0.000 C 
BRANCH   3   4
ATOM      4  C6  MOL C   1      27.012  40.432  29.031 -0.23 -0.00    +0.000 C 
BRANCH   4   5
ATOM      5  C8  MOL C   1      28.143  39.728  29.745 -0.57 +0.00    -0.000 C 
BRANCH   5   6
ATOM      6  C10 MOL C   1      28.349  40.418  31.089 -0.71 +0.00    -0.005 C 
ATOM      7  C12 MOL C   1      29.761  40.705  31.502 -0.61 -0.00    +0.005 C 
ENDBRANCH   5   6
ENDBRANCH   4   5
ENDBRANCH   3   4
ENDBRANCH   2   3
ENDBRANCH   1   2
BRANCH   1   8
ATOM      8  C3  MOL C   1      28.812  38.321  26.376 -0.40 -0.00    +0.000 C 
BRANCH   8   9
ATOM      9  C5  MOL C   1      27.996  37.448  27.509 -0.44 -0.00    +0.000 C 
BRANCH   9  10
ATOM     10  C7  MOL C   1      28.869  36.760  28.624 -0.52 +0.00    -0.000 C 
BRANCH  10  11
ATOM     11  C9  MOL C   1      30.392  36.606  28.281 -0.45 +0.00    -0.005 C 
ATOM     12  C11 MOL C   1      30.485  36.253  26.755 -0.45 -0.00    +0.005 C 
ENDBRANCH  10  11
ENDBRANCH   9  10
ENDBRANCH   8   9
ENDBRANCH   1   8
TORSDOF 9
TER
ENDMDL
MODEL       17
USER    Run = 17
USER    DPF = lac1.dpf
USER  
USER    Estimated Free Energy of Binding    =   -2.16 kcal/mol  [=(1)+(2)+(3)-(4)]
USER    Estimated Inhibition Constant, Ki   =   26.25 mM (millimolar)  [Temperature = 298.15 K]
USER    
USER    (1) Final Intermolecular Energy     =   -4.35 kcal/mol
USER        vdW + Hbond + desolv Energy     =   -4.35 kcal/mol
USER        Electrostatic Energy            =   +0.00 kcal/mol
USER    (2) Final Total Internal Energy     =   -0.77 kcal/mol
USER    (3) Torsional Free Energy           =   +2.68 kcal/mol
USER    (4) Unbound System's Energy         =   -0.29 kcal/mol
USER    
USER    
USER    NEWDPF move PE_ligand.pdbqt
USER    NEWDPF about 3.037000 5.209000 3.149000
USER    NEWDPF tran0 28.978483 38.066064 28.537349
USER    NEWDPF quaternion0 0.712872 -0.402073 0.456321 0.349173
USER    NEWDPF axisangle0 0.760755 -0.429080 0.486972 139.126572
USER    NEWDPF quat0 0.760755 -0.429080 0.486972 139.126572
USER    NEWDPF dihe0 149.29 169.19 -50.73 4.56 -0.36 -179.12 -180.00 84.07 49.90 
USER  keepresnum = 1 
USER  
REMARK  9 active torsions:
REMARK  status: ('A' for Active; 'I' for Inactive)
REMARK    1  A    between atoms: C1_1  and  C2_2 
REMARK    2  A    between atoms: C1_1  and  C3_3 
REMARK    3  A    between atoms: C2_2  and  C4_4 
REMARK    4  A    between atoms: C3_3  and  C5_5 
REMARK    5  A    between atoms: C4_4  and  C6_6 
REMARK    6  A    between atoms: C5_5  and  C7_7 
REMARK    7  A    between atoms: C6_6  and  C8_8 
REMARK    8  A    between atoms: C7_7  and  C9_9 
REMARK    9  A    between atoms: C8_8  and  C10_10 
USER                              x       y       z     vdW  Elec       q    Type
USER                           _______ _______ _______ _____ _____    ______ ____
ROOT
ATOM      1  C1  MOL C   1      29.434  37.883  27.481 -0.51 -0.00    +0.000 C 
ENDROOT
BRANCH   1   2
ATOM      2  C2  MOL C   1      29.606  36.995  28.721 -0.32 -0.00    +0.000 C 
BRANCH   2   3
ATOM      3  C4  MOL C   1      28.217  36.333  29.001 -0.30 -0.00    +0.000 C 
BRANCH   3   4
ATOM      4  C6  MOL C   1      27.111  36.680  27.872 -0.10 -0.00    +0.000 C 
BRANCH   4   5
ATOM      5  C8  MOL C   1      26.274  37.919  28.099 -0.18 +0.00    -0.000 C 
BRANCH   5   6
ATOM      6  C10 MOL C   1      26.541  38.881  26.947 -0.41 +0.00    -0.005 C 
ATOM      7  C12 MOL C   1      26.311  40.340  27.205 -0.53 -0.00    +0.005 C 
ENDBRANCH   5   6
ENDBRANCH   4   5
ENDBRANCH   3   4
ENDBRANCH   2   3
ENDBRANCH   1   2
BRANCH   1   8
ATOM      8  C3  MOL C   1      30.105  39.260  27.873 -0.20 -0.00    +0.000 C 
BRANCH   8   9
ATOM      9  C5  MOL C   1      29.152  40.010  28.988 -0.56 -0.00    +0.000 C 
BRANCH   9  10
ATOM     10  C7  MOL C   1      29.824  40.342  30.373 -0.18 +0.00    -0.000 C 
BRANCH  10  11
ATOM     11  C9  MOL C   1      28.825  40.614  31.551 -0.73 +0.00    -0.005 C 
ATOM     12  C11 MOL C   1      27.378  40.400  30.986 -0.32 -0.00    +0.005 C 
ENDBRANCH  10  11
ENDBRANCH   9  10
ENDBRANCH   8   9
ENDBRANCH   1   8
TORSDOF 9
TER
ENDMDL
MODEL       18
USER    Run = 18
USER    DPF = lac1.dpf
USER  
USER    Estimated Free Energy of Binding    =   -2.94 kcal/mol  [=(1)+(2)+(3)-(4)]
USER    Estimated Inhibition Constant, Ki   =    6.98 mM (millimolar)  [Temperature = 298.15 K]
USER    
USER    (1) Final Intermolecular Energy     =   -5.72 kcal/mol
USER        vdW + Hbond + desolv Energy     =   -5.72 kcal/mol
USER        Electrostatic Energy            =   -0.00 kcal/mol
USER    (2) Final Total Internal Energy     =   -0.20 kcal/mol
USER    (3) Torsional Free Energy           =   +2.68 kcal/mol
USER    (4) Unbound System's Energy         =   -0.29 kcal/mol
USER    
USER    
USER    NEWDPF move PE_ligand.pdbqt
USER    NEWDPF about 3.037000 5.209000 3.149000
USER    NEWDPF tran0 27.343809 39.811515 28.044604
USER    NEWDPF quaternion0 -0.108184 0.987310 -0.054574 -0.102652
USER    NEWDPF axisangle0 -0.108759 0.992553 -0.054864 -168.216165
USER    NEWDPF quat0 -0.108759 0.992553 -0.054864 -168.216165
USER    NEWDPF dihe0 161.64 48.10 -24.36 88.48 -51.24 102.22 -89.72 55.73 -100.80 
USER  keepresnum = 1 
USER  
REMARK  9 active torsions:
REMARK  status: ('A' for Active; 'I' for Inactive)
REMARK    1  A    between atoms: C1_1  and  C2_2 
REMARK    2  A    between atoms: C1_1  and  C3_3 
REMARK    3  A    between atoms: C2_2  and  C4_4 
REMARK    4  A    between atoms: C3_3  and  C5_5 
REMARK    5  A    between atoms: C4_4  and  C6_6 
REMARK    6  A    between atoms: C5_5  and  C7_7 
REMARK    7  A    between atoms: C6_6  and  C8_8 
REMARK    8  A    between atoms: C7_7  and  C9_9 
REMARK    9  A    between atoms: C8_8  and  C10_10 
USER                              x       y       z     vdW  Elec       q    Type
USER                           _______ _______ _______ _____ _____    ______ ____
ROOT
ATOM      1  C1  MOL C   1      27.433  40.622  27.213 -0.45 -0.00    +0.000 C 
ENDROOT
BRANCH   1   2
ATOM      2  C2  MOL C   1      26.262  39.653  27.427 -0.51 -0.00    +0.000 C 
BRANCH   2   3
ATOM      3  C4  MOL C   1      26.677  38.291  26.778 -0.17 -0.00    +0.000 C 
BRANCH   3   4
ATOM      4  C6  MOL C   1      27.328  37.256  27.839 -0.38 -0.00    +0.000 C 
BRANCH   4   5
ATOM      5  C8  MOL C   1      28.501  36.435  27.353 -0.46 +0.00    -0.000 C 
BRANCH   5   6
ATOM      6  C10 MOL C   1      29.460  36.252  28.524 -0.56 +0.00    -0.005 C 
ATOM      7  C12 MOL C   1      30.928  36.282  28.219 -0.41 -0.00    +0.005 C 
ENDBRANCH   5   6
ENDBRANCH   4   5
ENDBRANCH   3   4
ENDBRANCH   2   3
ENDBRANCH   1   2
BRANCH   1   8
ATOM      8  C3  MOL C   1      28.669  39.695  26.876 -0.52 -0.00    +0.000 C 
BRANCH   8   9
ATOM      9  C5  MOL C   1      29.570  39.505  28.242 -0.54 -0.00    +0.000 C 
BRANCH   9  10
ATOM     10  C7  MOL C   1      28.775  39.255  29.577 -0.48 +0.00    -0.000 C 
BRANCH  10  11
ATOM     11  C9  MOL C   1      28.112  40.528  30.208 -0.48 +0.00    -0.005 C 
ATOM     12  C11 MOL C   1      28.757  40.728  31.624 -0.76 -0.00    +0.005 C 
ENDBRANCH  10  11
ENDBRANCH   9  10
ENDBRANCH   8   9
ENDBRANCH   1   8
TORSDOF 9
TER
ENDMDL
MODEL       19
USER    Run = 19
USER    DPF = lac1.dpf
USER  
USER    Estimated Free Energy of Binding    =   -1.63 kcal/mol  [=(1)+(2)+(3)-(4)]
USER    Estimated Inhibition Constant, Ki   =   64.34 mM (millimolar)  [Temperature = 298.15 K]
USER    
USER    (1) Final Intermolecular Energy     =   -4.08 kcal/mol
USER        vdW + Hbond + desolv Energy     =   -4.08 kcal/mol
USER        Electrostatic Energy            =   +0.00 kcal/mol
USER    (2) Final Total Internal Energy     =   -0.51 kcal/mol
USER    (3) Torsional Free Energy           =   +2.68 kcal/mol
USER    (4) Unbound System's Energy         =   -0.29 kcal/mol
USER    
USER    
USER    NEWDPF move PE_ligand.pdbqt
USER    NEWDPF about 3.037000 5.209000 3.149000
USER    NEWDPF tran0 27.542375 38.855862 27.089644
USER    NEWDPF quaternion0 0.450054 0.318103 -0.680302 0.483167
USER    NEWDPF axisangle0 0.514038 0.363327 -0.777019 122.215155
USER    NEWDPF quat0 0.514038 0.363327 -0.777019 122.215155
USER    NEWDPF dihe0 -161.60 60.49 -148.55 162.03 -81.82 134.82 -75.89 14.36 -75.25 
USER  keepresnum = 1 
USER  
REMARK  9 active torsions:
REMARK  status: ('A' for Active; 'I' for Inactive)
REMARK    1  A    between atoms: C1_1  and  C2_2 
REMARK    2  A    between atoms: C1_1  and  C3_3 
REMARK    3  A    between atoms: C2_2  and  C4_4 
REMARK    4  A    between atoms: C3_3  and  C5_5 
REMARK    5  A    between atoms: C4_4  and  C6_6 
REMARK    6  A    between atoms: C5_5  and  C7_7 
REMARK    7  A    between atoms: C6_6  and  C8_8 
REMARK    8  A    between atoms: C7_7  and  C9_9 
REMARK    9  A    between atoms: C8_8  and  C10_10 
USER                              x       y       z     vdW  Elec       q    Type
USER                           _______ _______ _______ _____ _____    ______ ____
ROOT
ATOM      1  C1  MOL C   1      26.533  38.465  26.660 -0.22 -0.00    +0.000 C 
ENDROOT
BRANCH   1   2
ATOM      2  C2  MOL C   1      26.985  39.929  26.752 -0.56 -0.00    +0.000 C 
BRANCH   2   3
ATOM      3  C4  MOL C   1      27.332  40.202  28.252 -0.61 -0.00    +0.000 C 
BRANCH   3   4
ATOM      4  C6  MOL C   1      28.921  40.367  28.515 -0.17 -0.00    +0.000 C 
BRANCH   4   5
ATOM      5  C8  MOL C   1      29.367  40.430  29.958 -0.14 +0.00    -0.000 C 
BRANCH   5   6
ATOM      6  C10 MOL C   1      28.266  39.812  30.814 -0.23 +0.00    -0.005 C 
ATOM      7  C12 MOL C   1      27.419  40.750  31.622 -0.55 -0.00    +0.005 C 
ENDBRANCH   5   6
ENDBRANCH   4   5
ENDBRANCH   3   4
ENDBRANCH   2   3
ENDBRANCH   1   2
BRANCH   1   8
ATOM      8  C3  MOL C   1      26.441  37.975  28.160 -0.20 -0.00    +0.000 C 
BRANCH   8   9
ATOM      9  C5  MOL C   1      27.008  36.430  28.244 -0.11 -0.00    +0.000 C 
BRANCH   9  10
ATOM     10  C7  MOL C   1      28.570  36.252  28.158 -0.53 +0.00    -0.000 C 
BRANCH  10  11
ATOM     11  C9  MOL C   1      29.380  37.573  27.914 -0.52 +0.00    -0.005 C 
ATOM     12  C11 MOL C   1      29.870  37.543  26.424 -0.24 -0.00    +0.005 C 
ENDBRANCH  10  11
ENDBRANCH   9  10
ENDBRANCH   8   9
ENDBRANCH   1   8
TORSDOF 9
TER
ENDMDL
MODEL       20
USER    Run = 20
USER    DPF = lac1.dpf
USER  
USER    Estimated Free Energy of Binding    =   +1.13 kcal/mol  [=(1)+(2)+(3)-(4)]
USER    
USER    (1) Final Intermolecular Energy     =   -5.12 kcal/mol
USER        vdW + Hbond + desolv Energy     =   -5.11 kcal/mol
USER        Electrostatic Energy            =   -0.00 kcal/mol
USER    (2) Final Total Internal Energy     =   +3.27 kcal/mol
USER    (3) Torsional Free Energy           =   +2.68 kcal/mol
USER    (4) Unbound System's Energy         =   -0.29 kcal/mol
USER    
USER    
USER    NEWDPF move PE_ligand.pdbqt
USER    NEWDPF about 3.037000 5.209000 3.149000
USER    NEWDPF tran0 28.128419 38.956732 27.659401
USER    NEWDPF quaternion0 -0.343708 -0.612578 0.341065 0.624730
USER    NEWDPF axisangle0 -0.440177 -0.784511 0.436792 102.675203
USER    NEWDPF quat0 -0.440177 -0.784511 0.436792 102.675203
USER    NEWDPF dihe0 30.27 171.82 42.79 -134.74 171.07 78.06 171.98 -163.81 -16.27 
USER  keepresnum = 1 
USER  
REMARK  9 active torsions:
REMARK  status: ('A' for Active; 'I' for Inactive)
REMARK    1  A    between atoms: C1_1  and  C2_2 
REMARK    2  A    between atoms: C1_1  and  C3_3 
REMARK    3  A    between atoms: C2_2  and  C4_4 
REMARK    4  A    between atoms: C3_3  and  C5_5 
REMARK    5  A    between atoms: C4_4  and  C6_6 
REMARK    6  A    between atoms: C5_5  and  C7_7 
REMARK    7  A    between atoms: C6_6  and  C8_8 
REMARK    8  A    between atoms: C7_7  and  C9_9 
REMARK    9  A    between atoms: C8_8  and  C10_10 
USER                              x       y       z     vdW  Elec       q    Type
USER                           _______ _______ _______ _____ _____    ______ ____
ROOT
ATOM      1  C1  MOL C   1      29.273  38.780  27.789 -0.57 -0.00    +0.000 C 
ENDROOT
BRANCH   1   2
ATOM      2  C2  MOL C   1      28.474  38.704  26.479 -0.47 -0.00    +0.000 C 
BRANCH   2   3
ATOM      3  C4  MOL C   1      27.001  39.102  26.824 -0.46 -0.00    +0.000 C 
BRANCH   3   4
ATOM      4  C6  MOL C   1      26.770  39.369  28.403 -0.50 -0.00    +0.000 C 
BRANCH   4   5
ATOM      5  C8  MOL C   1      27.169  40.730  28.926 -0.05 +0.00    -0.000 C 
BRANCH   5   6
ATOM      6  C10 MOL C   1      27.639  40.557  30.366 -0.42 +0.00    -0.005 C 
ATOM      7  C12 MOL C   1      29.076  40.186  30.578 -0.59 -0.00    +0.005 C 
ENDBRANCH   5   6
ENDBRANCH   4   5
ENDBRANCH   3   4
ENDBRANCH   2   3
ENDBRANCH   1   2
BRANCH   1   8
ATOM      8  C3  MOL C   1      28.677  37.628  28.693 -0.43 -0.00    +0.000 C 
BRANCH   8   9
ATOM      9  C5  MOL C   1      28.422  36.300  27.751 -0.49 -0.00    +0.000 C 
BRANCH   9  10
ATOM     10  C7  MOL C   1      29.189  36.258  26.377 -0.45 +0.00    -0.000 C 
BRANCH  10  11
ATOM     11  C9  MOL C   1      30.753  36.311  26.484 -0.29 +0.00    -0.005 C 
ATOM     12  C11 MOL C   1      31.112  36.255  28.010 -0.39 -0.00    +0.005 C 
ENDBRANCH  10  11
ENDBRANCH   9  10
ENDBRANCH   8   9
ENDBRANCH   1   8
TORSDOF 9
TER
ENDMDL
MODEL       21
USER    Run = 21
USER    DPF = lac1.dpf
USER  
USER    Estimated Free Energy of Binding    =   -1.70 kcal/mol  [=(1)+(2)+(3)-(4)]
USER    Estimated Inhibition Constant, Ki   =   56.65 mM (millimolar)  [Temperature = 298.15 K]
USER    
USER    (1) Final Intermolecular Energy     =   -5.14 kcal/mol
USER        vdW + Hbond + desolv Energy     =   -5.14 kcal/mol
USER        Electrostatic Energy            =   +0.00 kcal/mol
USER    (2) Final Total Internal Energy     =   +0.47 kcal/mol
USER    (3) Torsional Free Energy           =   +2.68 kcal/mol
USER    (4) Unbound System's Energy         =   -0.29 kcal/mol
USER    
USER    
USER    NEWDPF move PE_ligand.pdbqt
USER    NEWDPF about 3.037000 5.209000 3.149000
USER    NEWDPF tran0 28.261447 40.718947 27.660682
USER    NEWDPF quaternion0 -0.189131 0.585642 -0.787474 0.033742
USER    NEWDPF axisangle0 -0.189239 0.585976 -0.787922 176.132663
USER    NEWDPF quat0 -0.189239 0.585976 -0.787922 176.132663
USER    NEWDPF dihe0 -100.15 156.07 80.84 -59.98 -152.39 -68.52 -179.69 178.25 172.13 
USER  keepresnum = 1 
USER  
REMARK  9 active torsions:
REMARK  status: ('A' for Active; 'I' for Inactive)
REMARK    1  A    between atoms: C1_1  and  C2_2 
REMARK    2  A    between atoms: C1_1  and  C3_3 
REMARK    3  A    between atoms: C2_2  and  C4_4 
REMARK    4  A    between atoms: C3_3  and  C5_5 
REMARK    5  A    between atoms: C4_4  and  C6_6 
REMARK    6  A    between atoms: C5_5  and  C7_7 
REMARK    7  A    between atoms: C6_6  and  C8_8 
REMARK    8  A    between atoms: C7_7  and  C9_9 
REMARK    9  A    between atoms: C8_8  and  C10_10 
USER                              x       y       z     vdW  Elec       q    Type
USER                           _______ _______ _______ _____ _____    ______ ____
ROOT
ATOM      1  C1  MOL C   1      28.318  39.754  27.010 -0.59 -0.00    +0.000 C 
ENDROOT
BRANCH   1   2
ATOM      2  C2  MOL C   1      27.221  40.117  28.022 -0.60 -0.00    +0.000 C 
BRANCH   2   3
ATOM      3  C4  MOL C   1      26.360  38.829  28.238 -0.42 -0.00    +0.000 C 
BRANCH   3   4
ATOM      4  C6  MOL C   1      26.949  37.536  27.462 -0.10 -0.00    +0.000 C 
BRANCH   4   5
ATOM      5  C8  MOL C   1      27.369  36.363  28.319 -0.34 +0.00    -0.000 C 
BRANCH   5   6
ATOM      6  C10 MOL C   1      28.890  36.269  28.269 -0.54 +0.00    -0.005 C 
ATOM      7  C12 MOL C   1      29.542  36.418  26.927 -0.48 -0.00    +0.005 C 
ENDBRANCH   5   6
ENDBRANCH   4   5
ENDBRANCH   3   4
ENDBRANCH   2   3
ENDBRANCH   1   2
BRANCH   1   8
ATOM      8  C3  MOL C   1      29.636  39.623  27.873 -0.38 -0.00    +0.000 C 
BRANCH   8   9
ATOM      9  C5  MOL C   1      29.214  39.299  29.432 -0.47 -0.00    +0.000 C 
BRANCH   9  10
ATOM     10  C7  MOL C   1      29.841  40.231  30.535 -0.14 +0.00    -0.000 C 
BRANCH  10  11
ATOM     11  C9  MOL C   1      28.836  40.747  31.624 -0.76 +0.00    -0.005 C 
ATOM     12  C11 MOL C   1      27.394  40.379  31.129 -0.32 -0.00    +0.005 C 
ENDBRANCH  10  11
ENDBRANCH   9  10
ENDBRANCH   8   9
ENDBRANCH   1   8
TORSDOF 9
TER
ENDMDL
MODEL       22
USER    Run = 22
USER    DPF = lac1.dpf
USER  
USER    Estimated Free Energy of Binding    =   -0.63 kcal/mol  [=(1)+(2)+(3)-(4)]
USER    Estimated Inhibition Constant, Ki   =  347.52 mM (millimolar)  [Temperature = 298.15 K]
USER    
USER    (1) Final Intermolecular Energy     =   -4.00 kcal/mol
USER        vdW + Hbond + desolv Energy     =   -4.00 kcal/mol
USER        Electrostatic Energy            =   +0.00 kcal/mol
USER    (2) Final Total Internal Energy     =   +0.41 kcal/mol
USER    (3) Torsional Free Energy           =   +2.68 kcal/mol
USER    (4) Unbound System's Energy         =   -0.29 kcal/mol
USER    
USER    
USER    NEWDPF move PE_ligand.pdbqt
USER    NEWDPF about 3.037000 5.209000 3.149000
USER    NEWDPF tran0 28.877442 39.016145 27.858038
USER    NEWDPF quaternion0 0.953810 -0.108055 0.061330 0.273513
USER    NEWDPF axisangle0 0.991622 -0.112339 0.063762 148.253180
USER    NEWDPF quat0 0.991622 -0.112339 0.063762 148.253180
USER    NEWDPF dihe0 -144.72 -108.85 -42.24 -59.01 1.39 72.34 167.14 86.60 75.51 
USER  keepresnum = 1 
USER  
REMARK  9 active torsions:
REMARK  status: ('A' for Active; 'I' for Inactive)
REMARK    1  A    between atoms: C1_1  and  C2_2 
REMARK    2  A    between atoms: C1_1  and  C3_3 
REMARK    3  A    between atoms: C2_2  and  C4_4 
REMARK    4  A    between atoms: C3_3  and  C5_5 
REMARK    5  A    between atoms: C4_4  and  C6_6 
REMARK    6  A    between atoms: C5_5  and  C7_7 
REMARK    7  A    between atoms: C6_6  and  C8_8 
REMARK    8  A    between atoms: C7_7  and  C9_9 
REMARK    9  A    between atoms: C8_8  and  C10_10 
USER                              x       y       z     vdW  Elec       q    Type
USER                           _______ _______ _______ _____ _____    ______ ____
ROOT
ATOM      1  C1  MOL C   1      28.754  38.703  26.743 -0.47 -0.00    +0.000 C 
ENDROOT
BRANCH   1   2
ATOM      2  C2  MOL C   1      30.070  38.806  27.527 -0.04 -0.00    +0.000 C 
BRANCH   2   3
ATOM      3  C4  MOL C   1      30.388  37.373  28.068 -0.18 -0.00    +0.000 C 
BRANCH   3   4
ATOM      4  C6  MOL C   1      29.179  36.324  27.832 -0.53 -0.00    +0.000 C 
BRANCH   4   5
ATOM      5  C8  MOL C   1      28.122  36.253  28.911 -0.36 +0.00    -0.000 C 
BRANCH   5   6
ATOM      6  C10 MOL C   1      26.763  36.443  28.247 +0.47 +0.00    -0.005 C 
ATOM      7  C12 MOL C   1      26.257  37.848  28.110 -0.13 -0.00    +0.005 C 
ENDBRANCH   5   6
ENDBRANCH   4   5
ENDBRANCH   3   4
ENDBRANCH   2   3
ENDBRANCH   1   2
BRANCH   1   8
ATOM      8  C3  MOL C   1      28.183  40.177  26.716 -0.43 -0.00    +0.000 C 
BRANCH   8   9
ATOM      9  C5  MOL C   1      27.732  40.594  28.244 -0.43 -0.00    +0.000 C 
BRANCH   9  10
ATOM     10  C7  MOL C   1      28.224  39.647  29.402 -0.61 +0.00    -0.000 C 
BRANCH  10  11
ATOM     11  C9  MOL C   1      28.795  40.379  30.666 -0.67 +0.00    -0.005 C 
ATOM     12  C11 MOL C   1      27.571  40.744  31.577 -0.62 -0.00    +0.005 C 
ENDBRANCH  10  11
ENDBRANCH   9  10
ENDBRANCH   8   9
ENDBRANCH   1   8
TORSDOF 9
TER
ENDMDL
MODEL       23
USER    Run = 23
USER    DPF = lac1.dpf
USER  
USER    Estimated Free Energy of Binding    =   -0.20 kcal/mol  [=(1)+(2)+(3)-(4)]
USER    Estimated Inhibition Constant, Ki   =  710.70 mM (millimolar)  [Temperature = 298.15 K]
USER    
USER    (1) Final Intermolecular Energy     =   -3.85 kcal/mol
USER        vdW + Hbond + desolv Energy     =   -3.85 kcal/mol
USER        Electrostatic Energy            =   +0.00 kcal/mol
USER    (2) Final Total Internal Energy     =   +0.68 kcal/mol
USER    (3) Torsional Free Energy           =   +2.68 kcal/mol
USER    (4) Unbound System's Energy         =   -0.29 kcal/mol
USER    
USER    
USER    NEWDPF move PE_ligand.pdbqt
USER    NEWDPF about 3.037000 5.209000 3.149000
USER    NEWDPF tran0 26.323588 37.584572 26.659224
USER    NEWDPF quaternion0 -0.083278 -0.274474 -0.274400 0.917842
USER    NEWDPF axisangle0 -0.209796 -0.691464 -0.691276 46.774843
USER    NEWDPF quat0 -0.209796 -0.691464 -0.691276 46.774843
USER    NEWDPF dihe0 -30.64 137.99 -36.08 33.93 22.39 133.92 -127.36 175.33 129.88 
USER  keepresnum = 1 
USER  
REMARK  9 active torsions:
REMARK  status: ('A' for Active; 'I' for Inactive)
REMARK    1  A    between atoms: C1_1  and  C2_2 
REMARK    2  A    between atoms: C1_1  and  C3_3 
REMARK    3  A    between atoms: C2_2  and  C4_4 
REMARK    4  A    between atoms: C3_3  and  C5_5 
REMARK    5  A    between atoms: C4_4  and  C6_6 
REMARK    6  A    between atoms: C5_5  and  C7_7 
REMARK    7  A    between atoms: C6_6  and  C8_8 
REMARK    8  A    between atoms: C7_7  and  C9_9 
REMARK    9  A    between atoms: C8_8  and  C10_10 
USER                              x       y       z     vdW  Elec       q    Type
USER                           _______ _______ _______ _____ _____    ______ ____
ROOT
ATOM      1  C1  MOL C   1      26.263  38.256  27.609 -0.30 -0.00    +0.000 C 
ENDROOT
BRANCH   1   2
ATOM      2  C2  MOL C   1      27.297  38.357  26.479 -0.36 -0.00    +0.000 C 
BRANCH   2   3
ATOM      3  C4  MOL C   1      27.710  39.862  26.376 -0.55 -0.00    +0.000 C 
BRANCH   3   4
ATOM      4  C6  MOL C   1      28.297  40.454  27.764 -0.49 -0.00    +0.000 C 
BRANCH   4   5
ATOM      5  C8  MOL C   1      27.325  40.570  28.916 -0.35 +0.00    -0.000 C 
BRANCH   5   6
ATOM      6  C10 MOL C   1      28.001  39.993  30.156 -0.58 +0.00    -0.005 C 
ATOM      7  C12 MOL C   1      29.500  39.997  30.184 -0.43 -0.00    +0.005 C 
ENDBRANCH   5   6
ENDBRANCH   4   5
ENDBRANCH   3   4
ENDBRANCH   2   3
ENDBRANCH   1   2
BRANCH   1   8
ATOM      8  C3  MOL C   1      26.504  36.831  28.251 +0.67 -0.00    +0.000 C 
BRANCH   8   9
ATOM      9  C5  MOL C   1      28.021  36.326  27.853 -0.47 -0.00    +0.000 C 
BRANCH   9  10
ATOM     10  C7  MOL C   1      29.212  37.021  28.611 -0.50 +0.00    -0.000 C 
BRANCH  10  11
ATOM     11  C9  MOL C   1      30.381  37.527  27.696 -0.13 +0.00    -0.005 C 
ATOM     12  C11 MOL C   1      30.412  36.598  26.433 -0.36 -0.00    +0.005 C 
ENDBRANCH  10  11
ENDBRANCH   9  10
ENDBRANCH   8   9
ENDBRANCH   1   8
TORSDOF 9
TER
ENDMDL
MODEL       24
USER    Run = 24
USER    DPF = lac1.dpf
USER  
USER    Estimated Free Energy of Binding    =   +1.52 kcal/mol  [=(1)+(2)+(3)-(4)]
USER    
USER    (1) Final Intermolecular Energy     =   -1.53 kcal/mol
USER        vdW + Hbond + desolv Energy     =   -1.52 kcal/mol
USER        Electrostatic Energy            =   -0.00 kcal/mol
USER    (2) Final Total Internal Energy     =   +0.08 kcal/mol
USER    (3) Torsional Free Energy           =   +2.68 kcal/mol
USER    (4) Unbound System's Energy         =   -0.29 kcal/mol
USER    
USER    
USER    NEWDPF move PE_ligand.pdbqt
USER    NEWDPF about 3.037000 5.209000 3.149000
USER    NEWDPF tran0 29.346466 38.913829 28.241891
USER    NEWDPF quaternion0 0.936192 0.297947 0.116243 -0.145809
USER    NEWDPF axisangle0 0.946305 0.301166 0.117499 -163.231762
USER    NEWDPF quat0 0.946305 0.301166 0.117499 -163.231762
USER    NEWDPF dihe0 -121.25 -104.77 -180.00 144.67 -135.01 172.20 -158.28 28.25 -7.83 
USER  keepresnum = 1 
USER  
REMARK  9 active torsions:
REMARK  status: ('A' for Active; 'I' for Inactive)
REMARK    1  A    between atoms: C1_1  and  C2_2 
REMARK    2  A    between atoms: C1_1  and  C3_3 
REMARK    3  A    between atoms: C2_2  and  C4_4 
REMARK    4  A    between atoms: C3_3  and  C5_5 
REMARK    5  A    between atoms: C4_4  and  C6_6 
REMARK    6  A    between atoms: C5_5  and  C7_7 
REMARK    7  A    between atoms: C6_6  and  C8_8 
REMARK    8  A    between atoms: C7_7  and  C9_9 
REMARK    9  A    between atoms: C8_8  and  C10_10 
USER                              x       y       z     vdW  Elec       q    Type
USER                           _______ _______ _______ _____ _____    ______ ____
ROOT
ATOM      1  C1  MOL C   1      29.950  38.011  27.822 -0.46 -0.00    +0.000 C 
ENDROOT
BRANCH   1   2
ATOM      2  C2  MOL C   1      30.483  39.425  28.091 +0.63 -0.00    +0.000 C 
BRANCH   2   3
ATOM      3  C4  MOL C   1      29.387  40.171  28.921 -0.12 -0.00    +0.000 C 
BRANCH   3   4
ATOM      4  C6  MOL C   1      28.455  39.169  29.786 -0.22 -0.00    +0.000 C 
BRANCH   4   5
ATOM      5  C8  MOL C   1      28.165  39.575  31.213 +1.32 +0.00    -0.000 C 
BRANCH   5   6
ATOM      6  C10 MOL C   1      29.078  40.747  31.560 -0.73 +0.00    -0.005 C 
ATOM      7  C12 MOL C   1      30.552  40.477  31.604 -0.08 -0.01    +0.005 C 
ENDBRANCH   5   6
ENDBRANCH   4   5
ENDBRANCH   3   4
ENDBRANCH   2   3
ENDBRANCH   1   2
BRANCH   1   8
ATOM      8  C3  MOL C   1      28.853  38.199  26.699 -0.45 -0.00    +0.000 C 
BRANCH   8   9
ATOM      9  C5  MOL C   1      27.451  37.504  27.213 -0.30 -0.00    +0.000 C 
BRANCH   9  10
ATOM     10  C7  MOL C   1      26.253  38.481  27.509 -0.37 +0.00    -0.000 C 
BRANCH  10  11
ATOM     11  C9  MOL C   1      26.658  39.972  27.778 -0.56 +0.00    -0.005 C 
ATOM     12  C11 MOL C   1      26.689  40.697  26.387 -0.19 -0.00    +0.005 C 
ENDBRANCH  10  11
ENDBRANCH   9  10
ENDBRANCH   8   9
ENDBRANCH   1   8
TORSDOF 9
TER
ENDMDL
MODEL       25
USER    Run = 25
USER    DPF = lac1.dpf
USER  
USER    Estimated Free Energy of Binding    =   -2.30 kcal/mol  [=(1)+(2)+(3)-(4)]
USER    Estimated Inhibition Constant, Ki   =   20.72 mM (millimolar)  [Temperature = 298.15 K]
USER    
USER    (1) Final Intermolecular Energy     =   -5.69 kcal/mol
USER        vdW + Hbond + desolv Energy     =   -5.69 kcal/mol
USER        Electrostatic Energy            =   -0.00 kcal/mol
USER    (2) Final Total Internal Energy     =   +0.42 kcal/mol
USER    (3) Torsional Free Energy           =   +2.68 kcal/mol
USER    (4) Unbound System's Energy         =   -0.29 kcal/mol
USER    
USER    
USER    NEWDPF move PE_ligand.pdbqt
USER    NEWDPF about 3.037000 5.209000 3.149000
USER    NEWDPF tran0 27.682290 39.322637 27.399985
USER    NEWDPF quaternion0 -0.548414 -0.784521 -0.064389 0.282176
USER    NEWDPF axisangle0 -0.571644 -0.817752 -0.067116 147.219733
USER    NEWDPF quat0 -0.571644 -0.817752 -0.067116 147.219733
USER    NEWDPF dihe0 137.97 123.19 82.67 156.60 153.23 -22.56 -152.00 47.55 -8.46 
USER  keepresnum = 1 
USER  
REMARK  9 active torsions:
REMARK  status: ('A' for Active; 'I' for Inactive)
REMARK    1  A    between atoms: C1_1  and  C2_2 
REMARK    2  A    between atoms: C1_1  and  C3_3 
REMARK    3  A    between atoms: C2_2  and  C4_4 
REMARK    4  A    between atoms: C3_3  and  C5_5 
REMARK    5  A    between atoms: C4_4  and  C6_6 
REMARK    6  A    between atoms: C5_5  and  C7_7 
REMARK    7  A    between atoms: C6_6  and  C8_8 
REMARK    8  A    between atoms: C7_7  and  C9_9 
REMARK    9  A    between atoms: C8_8  and  C10_10 
USER                              x       y       z     vdW  Elec       q    Type
USER                           _______ _______ _______ _____ _____    ______ ____
ROOT
ATOM      1  C1  MOL C   1      28.821  39.409  27.169 -0.55 -0.00    +0.000 C 
ENDROOT
BRANCH   1   2
ATOM      2  C2  MOL C   1      27.714  40.364  26.700 -0.38 -0.00    +0.000 C 
BRANCH   2   3
ATOM      3  C4  MOL C   1      26.422  39.986  27.497 -0.55 -0.00    +0.000 C 
BRANCH   3   4
ATOM      4  C6  MOL C   1      26.734  39.446  28.990 -0.21 -0.00    +0.000 C 
BRANCH   4   5
ATOM      5  C8  MOL C   1      27.379  40.425  29.945 -0.32 +0.00    -0.000 C 
BRANCH   5   6
ATOM      6  C10 MOL C   1      28.827  39.992  30.150 -0.64 +0.00    -0.005 C 
ATOM      7  C12 MOL C   1      29.575  40.619  31.288 -0.64 -0.00    +0.005 C 
ENDBRANCH   5   6
ENDBRANCH   4   5
ENDBRANCH   3   4
ENDBRANCH   2   3
ENDBRANCH   1   2
BRANCH   1   8
ATOM      8  C3  MOL C   1      28.471  38.023  26.493 -0.43 -0.00    +0.000 C 
BRANCH   8   9
ATOM      9  C5  MOL C   1      27.909  36.999  27.655 -0.44 -0.00    +0.000 C 
BRANCH   9  10
ATOM     10  C7  MOL C   1      28.995  36.258  28.520 -0.56 +0.00    -0.000 C 
BRANCH  10  11
ATOM     11  C9  MOL C   1      30.473  36.421  28.020 -0.51 +0.00    -0.005 C 
ATOM     12  C11 MOL C   1      30.452  36.250  26.461 -0.46 -0.00    +0.005 C 
ENDBRANCH  10  11
ENDBRANCH   9  10
ENDBRANCH   8   9
ENDBRANCH   1   8
TORSDOF 9
TER
ENDMDL
MODEL       26
USER    Run = 26
USER    DPF = lac1.dpf
USER  
USER    Estimated Free Energy of Binding    =   -2.48 kcal/mol  [=(1)+(2)+(3)-(4)]
USER    Estimated Inhibition Constant, Ki   =   15.30 mM (millimolar)  [Temperature = 298.15 K]
USER    
USER    (1) Final Intermolecular Energy     =   -5.69 kcal/mol
USER        vdW + Hbond + desolv Energy     =   -5.69 kcal/mol
USER        Electrostatic Energy            =   -0.00 kcal/mol
USER    (2) Final Total Internal Energy     =   +0.24 kcal/mol
USER    (3) Torsional Free Energy           =   +2.68 kcal/mol
USER    (4) Unbound System's Energy         =   -0.29 kcal/mol
USER    
USER    
USER    NEWDPF move PE_ligand.pdbqt
USER    NEWDPF about 3.037000 5.209000 3.149000
USER    NEWDPF tran0 28.234572 37.708114 26.604683
USER    NEWDPF quaternion0 -0.433008 -0.087025 0.456895 -0.772125
USER    NEWDPF axisangle0 -0.681398 -0.136946 0.718987 -78.909778
USER    NEWDPF quat0 -0.681398 -0.136946 0.718987 -78.909778
USER    NEWDPF dihe0 96.74 114.77 179.78 94.64 -154.33 159.55 -173.81 73.66 -154.90 
USER  keepresnum = 1 
USER  
REMARK  9 active torsions:
REMARK  status: ('A' for Active; 'I' for Inactive)
REMARK    1  A    between atoms: C1_1  and  C2_2 
REMARK    2  A    between atoms: C1_1  and  C3_3 
REMARK    3  A    between atoms: C2_2  and  C4_4 
REMARK    4  A    between atoms: C3_3  and  C5_5 
REMARK    5  A    between atoms: C4_4  and  C6_6 
REMARK    6  A    between atoms: C5_5  and  C7_7 
REMARK    7  A    between atoms: C6_6  and  C8_8 
REMARK    8  A    between atoms: C7_7  and  C9_9 
REMARK    9  A    between atoms: C8_8  and  C10_10 
USER                              x       y       z     vdW  Elec       q    Type
USER                           _______ _______ _______ _____ _____    ______ ____
ROOT
ATOM      1  C1  MOL C   1      27.218  38.252  26.440 -0.31 -0.00    +0.000 C 
ENDROOT
BRANCH   1   2
ATOM      2  C2  MOL C   1      28.614  38.890  26.419 -0.43 -0.00    +0.000 C 
BRANCH   2   3
ATOM      3  C4  MOL C   1      28.520  40.214  27.246 -0.51 -0.00    +0.000 C 
BRANCH   3   4
ATOM      4  C6  MOL C   1      27.132  40.350  28.068 -0.60 -0.00    +0.000 C 
BRANCH   4   5
ATOM      5  C8  MOL C   1      27.236  40.379  29.576 -0.22 +0.00    -0.000 C 
BRANCH   5   6
ATOM      6  C10 MOL C   1      28.662  39.991  29.953 -0.64 +0.00    -0.005 C 
ATOM      7  C12 MOL C   1      29.202  40.533  31.243 -0.68 -0.00    +0.005 C 
ENDBRANCH   5   6
ENDBRANCH   4   5
ENDBRANCH   3   4
ENDBRANCH   2   3
ENDBRANCH   1   2
BRANCH   1   8
ATOM      8  C3  MOL C   1      27.043  37.709  27.914 -0.36 -0.00    +0.000 C 
BRANCH   8   9
ATOM      9  C5  MOL C   1      27.812  36.257  28.034 -0.48 -0.00    +0.000 C 
BRANCH   9  10
ATOM     10  C7  MOL C   1      29.240  36.273  28.697 -0.53 +0.00    -0.000 C 
BRANCH  10  11
ATOM     11  C9  MOL C   1      30.370  36.933  27.833 -0.44 +0.00    -0.005 C 
ATOM     12  C11 MOL C   1      30.323  36.254  26.419 -0.48 -0.00    +0.005 C 
ENDBRANCH  10  11
ENDBRANCH   9  10
ENDBRANCH   8   9
ENDBRANCH   1   8
TORSDOF 9
TER
ENDMDL
MODEL       27
USER    Run = 27
USER    DPF = lac1.dpf
USER  
USER    Estimated Free Energy of Binding    =   -2.18 kcal/mol  [=(1)+(2)+(3)-(4)]
USER    Estimated Inhibition Constant, Ki   =   25.25 mM (millimolar)  [Temperature = 298.15 K]
USER    
USER    (1) Final Intermolecular Energy     =   -5.23 kcal/mol
USER        vdW + Hbond + desolv Energy     =   -5.23 kcal/mol
USER        Electrostatic Energy            =   -0.00 kcal/mol
USER    (2) Final Total Internal Energy     =   +0.08 kcal/mol
USER    (3) Torsional Free Energy           =   +2.68 kcal/mol
USER    (4) Unbound System's Energy         =   -0.29 kcal/mol
USER    
USER    
USER    NEWDPF move PE_ligand.pdbqt
USER    NEWDPF about 3.037000 5.209000 3.149000
USER    NEWDPF tran0 27.818282 39.151636 27.507812
USER    NEWDPF quaternion0 -0.903707 0.042512 0.226384 -0.360910
USER    NEWDPF axisangle0 -0.969019 0.045585 0.242745 -137.687845
USER    NEWDPF quat0 -0.969019 0.045585 0.242745 -137.687845
USER    NEWDPF dihe0 -136.64 -28.30 -145.98 8.84 176.28 152.86 -164.49 74.89 5.20 
USER  keepresnum = 1 
USER  
REMARK  9 active torsions:
REMARK  status: ('A' for Active; 'I' for Inactive)
REMARK    1  A    between atoms: C1_1  and  C2_2 
REMARK    2  A    between atoms: C1_1  and  C3_3 
REMARK    3  A    between atoms: C2_2  and  C4_4 
REMARK    4  A    between atoms: C3_3  and  C5_5 
REMARK    5  A    between atoms: C4_4  and  C6_6 
REMARK    6  A    between atoms: C5_5  and  C7_7 
REMARK    7  A    between atoms: C6_6  and  C8_8 
REMARK    8  A    between atoms: C7_7  and  C9_9 
REMARK    9  A    between atoms: C8_8  and  C10_10 
USER                              x       y       z     vdW  Elec       q    Type
USER                           _______ _______ _______ _____ _____    ______ ____
ROOT
ATOM      1  C1  MOL C   1      27.223  39.007  26.517 -0.45 -0.00    +0.000 C 
ENDROOT
BRANCH   1   2
ATOM      2  C2  MOL C   1      28.700  39.404  26.651 -0.44 -0.00    +0.000 C 
BRANCH   2   3
ATOM      3  C4  MOL C   1      29.190  38.866  28.035 -0.58 -0.00    +0.000 C 
BRANCH   3   4
ATOM      4  C6  MOL C   1      28.255  37.683  28.623 -0.39 -0.00    +0.000 C 
BRANCH   4   5
ATOM      5  C8  MOL C   1      28.585  36.275  28.182 -0.54 +0.00    -0.000 C 
BRANCH   5   6
ATOM      6  C10 MOL C   1      30.049  36.251  27.756 -0.55 +0.00    -0.005 C 
ATOM      7  C12 MOL C   1      30.370  36.744  26.377 -0.33 -0.00    +0.005 C 
ENDBRANCH   5   6
ENDBRANCH   4   5
ENDBRANCH   3   4
ENDBRANCH   2   3
ENDBRANCH   1   2
BRANCH   1   8
ATOM      8  C3  MOL C   1      26.423  40.193  27.189 -0.54 -0.00    +0.000 C 
BRANCH   8   9
ATOM      9  C5  MOL C   1      26.459  39.993  28.823 -0.19 -0.00    +0.000 C 
BRANCH   9  10
ATOM     10  C7  MOL C   1      27.614  40.735  29.594 -0.03 +0.00    -0.000 C 
BRANCH  10  11
ATOM     11  C9  MOL C   1      27.992  40.120  30.986 -0.49 +0.00    -0.005 C 
ATOM     12  C11 MOL C   1      29.373  40.737  31.402 -0.69 -0.00    +0.005 C 
ENDBRANCH  10  11
ENDBRANCH   9  10
ENDBRANCH   8   9
ENDBRANCH   1   8
TORSDOF 9
TER
ENDMDL
MODEL       28
USER    Run = 28
USER    DPF = lac1.dpf
USER  
USER    Estimated Free Energy of Binding    =   -0.51 kcal/mol  [=(1)+(2)+(3)-(4)]
USER    Estimated Inhibition Constant, Ki   =  423.06 mM (millimolar)  [Temperature = 298.15 K]
USER    
USER    (1) Final Intermolecular Energy     =   -4.28 kcal/mol
USER        vdW + Hbond + desolv Energy     =   -4.28 kcal/mol
USER        Electrostatic Energy            =   -0.00 kcal/mol
USER    (2) Final Total Internal Energy     =   +0.80 kcal/mol
USER    (3) Torsional Free Energy           =   +2.68 kcal/mol
USER    (4) Unbound System's Energy         =   -0.29 kcal/mol
USER    
USER    
USER    NEWDPF move PE_ligand.pdbqt
USER    NEWDPF about 3.037000 5.209000 3.149000
USER    NEWDPF tran0 27.151207 39.530613 27.420281
USER    NEWDPF quaternion0 0.404931 -0.864467 0.178264 0.238641
USER    NEWDPF axisangle0 0.416978 -0.890187 0.183568 152.387266
USER    NEWDPF quat0 0.416978 -0.890187 0.183568 152.387266
USER    NEWDPF dihe0 118.65 177.63 -92.78 -78.46 -36.74 -66.35 -178.59 177.18 4.13 
USER  keepresnum = 1 
USER  
REMARK  9 active torsions:
REMARK  status: ('A' for Active; 'I' for Inactive)
REMARK    1  A    between atoms: C1_1  and  C2_2 
REMARK    2  A    between atoms: C1_1  and  C3_3 
REMARK    3  A    between atoms: C2_2  and  C4_4 
REMARK    4  A    between atoms: C3_3  and  C5_5 
REMARK    5  A    between atoms: C4_4  and  C6_6 
REMARK    6  A    between atoms: C5_5  and  C7_7 
REMARK    7  A    between atoms: C6_6  and  C8_8 
REMARK    8  A    between atoms: C7_7  and  C9_9 
REMARK    9  A    between atoms: C8_8  and  C10_10 
USER                              x       y       z     vdW  Elec       q    Type
USER                           _______ _______ _______ _____ _____    ______ ____
ROOT
ATOM      1  C1  MOL C   1      27.095  40.063  26.385 -0.53 -0.00    +0.000 C 
ENDROOT
BRANCH   1   2
ATOM      2  C2  MOL C   1      26.612  38.643  26.715 -0.35 -0.00    +0.000 C 
BRANCH   2   3
ATOM      3  C4  MOL C   1      26.332  38.606  28.253 -0.36 -0.00    +0.000 C 
BRANCH   3   4
ATOM      4  C6  MOL C   1      26.478  40.055  28.959 +0.08 -0.00    +0.000 C 
BRANCH   4   5
ATOM      5  C8  MOL C   1      27.409  40.141  30.146 -0.33 +0.00    -0.000 C 
BRANCH   5   6
ATOM      6  C10 MOL C   1      28.840  40.149  29.618 -0.52 +0.00    -0.005 C 
ATOM      7  C12 MOL C   1      29.938  40.363  30.616 -0.23 -0.00    +0.005 C 
ENDBRANCH   5   6
ENDBRANCH   4   5
ENDBRANCH   3   4
ENDBRANCH   2   3
ENDBRANCH   1   2
BRANCH   1   8
ATOM      8  C3  MOL C   1      28.657  40.025  26.631 -0.38 -0.00    +0.000 C 
BRANCH   8   9
ATOM      9  C5  MOL C   1      29.167  38.462  26.531 -0.25 -0.00    +0.000 C 
BRANCH   9  10
ATOM     10  C7  MOL C   1      29.980  37.911  27.761 -0.45 +0.00    -0.000 C 
BRANCH  10  11
ATOM     11  C9  MOL C   1      29.295  36.738  28.544 -0.52 +0.00    -0.005 C 
ATOM     12  C11 MOL C   1      28.081  36.254  27.676 -0.45 -0.00    +0.005 C 
ENDBRANCH  10  11
ENDBRANCH   9  10
ENDBRANCH   8   9
ENDBRANCH   1   8
TORSDOF 9
TER
ENDMDL
MODEL       29
USER    Run = 29
USER    DPF = lac1.dpf
USER  
USER    Estimated Free Energy of Binding    =   +0.60 kcal/mol  [=(1)+(2)+(3)-(4)]
USER    
USER    (1) Final Intermolecular Energy     =   -4.35 kcal/mol
USER        vdW + Hbond + desolv Energy     =   -4.35 kcal/mol
USER        Electrostatic Energy            =   +0.00 kcal/mol
USER    (2) Final Total Internal Energy     =   +1.98 kcal/mol
USER    (3) Torsional Free Energy           =   +2.68 kcal/mol
USER    (4) Unbound System's Energy         =   -0.29 kcal/mol
USER    
USER    
USER    NEWDPF move PE_ligand.pdbqt
USER    NEWDPF about 3.037000 5.209000 3.149000
USER    NEWDPF tran0 27.685572 39.534411 28.002301
USER    NEWDPF quaternion0 0.212825 -0.698306 -0.305949 -0.611122
USER    NEWDPF axisangle0 0.268875 -0.882216 -0.386525 -104.658677
USER    NEWDPF quat0 0.268875 -0.882216 -0.386525 -104.658677
USER    NEWDPF dihe0 -97.52 -25.43 150.87 -60.68 -157.74 6.19 180.00 130.19 41.58 
USER  keepresnum = 1 
USER  
REMARK  9 active torsions:
REMARK  status: ('A' for Active; 'I' for Inactive)
REMARK    1  A    between atoms: C1_1  and  C2_2 
REMARK    2  A    between atoms: C1_1  and  C3_3 
REMARK    3  A    between atoms: C2_2  and  C4_4 
REMARK    4  A    between atoms: C3_3  and  C5_5 
REMARK    5  A    between atoms: C4_4  and  C6_6 
REMARK    6  A    between atoms: C5_5  and  C7_7 
REMARK    7  A    between atoms: C6_6  and  C8_8 
REMARK    8  A    between atoms: C7_7  and  C9_9 
REMARK    9  A    between atoms: C8_8  and  C10_10 
USER                              x       y       z     vdW  Elec       q    Type
USER                           _______ _______ _______ _____ _____    ______ ____
ROOT
ATOM      1  C1  MOL C   1      27.024  40.368  28.476 -0.54 -0.00    +0.000 C 
ENDROOT
BRANCH   1   2
ATOM      2  C2  MOL C   1      27.128  38.906  28.935 +0.23 -0.00    +0.000 C 
BRANCH   2   3
ATOM      3  C4  MOL C   1      28.618  38.666  29.346 -0.26 -0.00    +0.000 C 
BRANCH   3   4
ATOM      4  C6  MOL C   1      29.518  40.009  29.279 -0.43 -0.00    +0.000 C 
BRANCH   4   5
ATOM      5  C8  MOL C   1      30.029  40.550  30.595 +0.07 +0.00    -0.000 C 
BRANCH   5   6
ATOM      6  C10 MOL C   1      28.913  40.403  31.624 -0.67 +0.00    -0.005 C 
ATOM      7  C12 MOL C   1      27.522  40.742  31.180 -0.51 -0.00    +0.005 C 
ENDBRANCH   5   6
ENDBRANCH   4   5
ENDBRANCH   3   4
ENDBRANCH   2   3
ENDBRANCH   1   2
BRANCH   1   8
ATOM      8  C3  MOL C   1      26.426  40.291  27.015 -0.54 -0.00    +0.000 C 
BRANCH   8   9
ATOM      9  C5  MOL C   1      26.790  38.817  26.375 -0.39 -0.00    +0.000 C 
BRANCH   9  10
ATOM     10  C7  MOL C   1      28.308  38.401  26.397 -0.44 +0.00    -0.000 C 
BRANCH  10  11
ATOM     11  C9  MOL C   1      28.593  36.941  26.894 -0.43 +0.00    -0.005 C 
ATOM     12  C11 MOL C   1      30.090  36.623  26.551 -0.45 -0.00    +0.005 C 
ENDBRANCH  10  11
ENDBRANCH   9  10
ENDBRANCH   8   9
ENDBRANCH   1   8
TORSDOF 9
TER
ENDMDL
MODEL       30
USER    Run = 30
USER    DPF = lac1.dpf
USER  
USER    Estimated Free Energy of Binding    =   -2.48 kcal/mol  [=(1)+(2)+(3)-(4)]
USER    Estimated Inhibition Constant, Ki   =   15.32 mM (millimolar)  [Temperature = 298.15 K]
USER    
USER    (1) Final Intermolecular Energy     =   -5.58 kcal/mol
USER        vdW + Hbond + desolv Energy     =   -5.58 kcal/mol
USER        Electrostatic Energy            =   -0.00 kcal/mol
USER    (2) Final Total Internal Energy     =   +0.13 kcal/mol
USER    (3) Torsional Free Energy           =   +2.68 kcal/mol
USER    (4) Unbound System's Energy         =   -0.29 kcal/mol
USER    
USER    
USER    NEWDPF move PE_ligand.pdbqt
USER    NEWDPF about 3.037000 5.209000 3.149000
USER    NEWDPF tran0 27.986134 39.084574 27.750694
USER    NEWDPF quaternion0 0.914860 0.184017 -0.155367 0.324085
USER    NEWDPF axisangle0 0.967053 0.194515 -0.164231 142.179746
USER    NEWDPF quat0 0.967053 0.194515 -0.164231 142.179746
USER    NEWDPF dihe0 -130.82 -49.84 -164.49 11.43 -158.60 130.35 145.79 93.44 35.83 
USER  keepresnum = 1 
USER  
REMARK  9 active torsions:
REMARK  status: ('A' for Active; 'I' for Inactive)
REMARK    1  A    between atoms: C1_1  and  C2_2 
REMARK    2  A    between atoms: C1_1  and  C3_3 
REMARK    3  A    between atoms: C2_2  and  C4_4 
REMARK    4  A    between atoms: C3_3  and  C5_5 
REMARK    5  A    between atoms: C4_4  and  C6_6 
REMARK    6  A    between atoms: C5_5  and  C7_7 
REMARK    7  A    between atoms: C6_6  and  C8_8 
REMARK    8  A    between atoms: C7_7  and  C9_9 
REMARK    9  A    between atoms: C8_8  and  C10_10 
USER                              x       y       z     vdW  Elec       q    Type
USER                           _______ _______ _______ _____ _____    ______ ____
ROOT
ATOM      1  C1  MOL C   1      27.790  38.810  26.636 -0.46 -0.00    +0.000 C 
ENDROOT
BRANCH   1   2
ATOM      2  C2  MOL C   1      28.916  39.704  27.177 -0.50 -0.00    +0.000 C 
BRANCH   2   3
ATOM      3  C4  MOL C   1      29.688  38.862  28.245 -0.53 -0.00    +0.000 C 
BRANCH   3   4
ATOM      4  C6  MOL C   1      28.752  37.772  28.991 -0.27 -0.00    +0.000 C 
BRANCH   4   5
ATOM      5  C8  MOL C   1      29.043  36.317  28.704 -0.53 +0.00    -0.000 C 
BRANCH   5   6
ATOM      6  C10 MOL C   1      30.286  36.255  27.822 -0.56 +0.00    -0.005 C 
ATOM      7  C12 MOL C   1      30.121  36.625  26.379 -0.44 -0.00    +0.005 C 
ENDBRANCH   5   6
ENDBRANCH   4   5
ENDBRANCH   3   4
ENDBRANCH   2   3
ENDBRANCH   1   2
BRANCH   1   8
ATOM      8  C3  MOL C   1      26.456  39.572  27.006 -0.50 -0.00    +0.000 C 
BRANCH   8   9
ATOM      9  C5  MOL C   1      26.362  39.701  28.646 -0.40 -0.00    +0.000 C 
BRANCH   9  10
ATOM     10  C7  MOL C   1      27.375  40.695  29.328 -0.14 +0.00    -0.000 C 
BRANCH  10  11
ATOM     11  C9  MOL C   1      27.726  40.369  30.822 -0.60 +0.00    -0.005 C 
ATOM     12  C11 MOL C   1      29.240  40.727  31.026 -0.63 -0.00    +0.005 C 
ENDBRANCH  10  11
ENDBRANCH   9  10
ENDBRANCH   8   9
ENDBRANCH   1   8
TORSDOF 9
TER
ENDMDL
MODEL       31
USER    Run = 31
USER    DPF = lac1.dpf
USER  
USER    Estimated Free Energy of Binding    =   +0.36 kcal/mol  [=(1)+(2)+(3)-(4)]
USER    
USER    (1) Final Intermolecular Energy     =   -3.51 kcal/mol
USER        vdW + Hbond + desolv Energy     =   -3.50 kcal/mol
USER        Electrostatic Energy            =   -0.00 kcal/mol
USER    (2) Final Total Internal Energy     =   +0.90 kcal/mol
USER    (3) Torsional Free Energy           =   +2.68 kcal/mol
USER    (4) Unbound System's Energy         =   -0.29 kcal/mol
USER    
USER    
USER    NEWDPF move PE_ligand.pdbqt
USER    NEWDPF about 3.037000 5.209000 3.149000
USER    NEWDPF tran0 28.602030 36.950261 27.395046
USER    NEWDPF quaternion0 -0.189236 0.123221 0.974156 0.005171
USER    NEWDPF axisangle0 -0.189238 0.123222 0.974169 179.407387
USER    NEWDPF quat0 -0.189238 0.123222 0.974169 179.407387
USER    NEWDPF dihe0 -144.52 140.61 -157.92 119.83 -31.44 41.61 -42.62 91.65 -124.42 
USER  keepresnum = 1 
USER  
REMARK  9 active torsions:
REMARK  status: ('A' for Active; 'I' for Inactive)
REMARK    1  A    between atoms: C1_1  and  C2_2 
REMARK    2  A    between atoms: C1_1  and  C3_3 
REMARK    3  A    between atoms: C2_2  and  C4_4 
REMARK    4  A    between atoms: C3_3  and  C5_5 
REMARK    5  A    between atoms: C4_4  and  C6_6 
REMARK    6  A    between atoms: C5_5  and  C7_7 
REMARK    7  A    between atoms: C6_6  and  C8_8 
REMARK    8  A    between atoms: C7_7  and  C9_9 
REMARK    9  A    between atoms: C8_8  and  C10_10 
USER                              x       y       z     vdW  Elec       q    Type
USER                           _______ _______ _______ _____ _____    ______ ____
ROOT
ATOM      1  C1  MOL C   1      28.390  36.287  28.329 -0.54 -0.00    +0.000 C 
ENDROOT
BRANCH   1   2
ATOM      2  C2  MOL C   1      27.353  36.833  27.337 +0.06 -0.00    +0.000 C 
BRANCH   2   3
ATOM      3  C4  MOL C   1      26.617  38.012  28.055 -0.28 -0.00    +0.000 C 
BRANCH   3   4
ATOM      4  C6  MOL C   1      26.281  39.246  27.064 -0.46 -0.00    +0.000 C 
BRANCH   4   5
ATOM      5  C8  MOL C   1      26.869  40.590  27.429 -0.54 +0.00    -0.000 C 
BRANCH   5   6
ATOM      6  C10 MOL C   1      27.893  40.365  28.538 -0.55 +0.00    -0.005 C 
ATOM      7  C12 MOL C   1      27.393  40.408  29.951 -0.35 -0.00    +0.005 C 
ENDBRANCH   5   6
ENDBRANCH   4   5
ENDBRANCH   3   4
ENDBRANCH   2   3
ENDBRANCH   1   2
BRANCH   1   8
ATOM      8  C3  MOL C   1      29.025  37.571  28.998 -0.22 -0.00    +0.000 C 
BRANCH   8   9
ATOM      9  C5  MOL C   1      29.795  38.444  27.833 -0.49 -0.00    +0.000 C 
BRANCH   9  10
ATOM     10  C7  MOL C   1      30.132  37.685  26.496 +0.26 +0.00    -0.000 C 
BRANCH  10  11
ATOM     11  C9  MOL C   1      30.762  36.260  26.678 -0.33 +0.00    -0.005 C 
ATOM     12  C11 MOL C   1      31.483  36.250  28.071 -0.06 -0.00    +0.005 C 
ENDBRANCH  10  11
ENDBRANCH   9  10
ENDBRANCH   8   9
ENDBRANCH   1   8
TORSDOF 9
TER
ENDMDL
MODEL       32
USER    Run = 32
USER    DPF = lac1.dpf
USER  
USER    Estimated Free Energy of Binding    =   -1.21 kcal/mol  [=(1)+(2)+(3)-(4)]
USER    Estimated Inhibition Constant, Ki   =  130.58 mM (millimolar)  [Temperature = 298.15 K]
USER    
USER    (1) Final Intermolecular Energy     =   -3.63 kcal/mol
USER        vdW + Hbond + desolv Energy     =   -3.63 kcal/mol
USER        Electrostatic Energy            =   -0.00 kcal/mol
USER    (2) Final Total Internal Energy     =   -0.54 kcal/mol
USER    (3) Torsional Free Energy           =   +2.68 kcal/mol
USER    (4) Unbound System's Energy         =   -0.29 kcal/mol
USER    
USER    
USER    NEWDPF move PE_ligand.pdbqt
USER    NEWDPF about 3.037000 5.209000 3.149000
USER    NEWDPF tran0 26.991536 38.790677 28.453169
USER    NEWDPF quaternion0 -0.468581 -0.743299 0.408337 -0.247383
USER    NEWDPF axisangle0 -0.483613 -0.767144 0.421437 -151.354585
USER    NEWDPF quat0 -0.483613 -0.767144 0.421437 -151.354585
USER    NEWDPF dihe0 178.59 -180.00 -165.18 65.49 -23.47 79.11 176.04 34.12 53.50 
USER  keepresnum = 1 
USER  
REMARK  9 active torsions:
REMARK  status: ('A' for Active; 'I' for Inactive)
REMARK    1  A    between atoms: C1_1  and  C2_2 
REMARK    2  A    between atoms: C1_1  and  C3_3 
REMARK    3  A    between atoms: C2_2  and  C4_4 
REMARK    4  A    between atoms: C3_3  and  C5_5 
REMARK    5  A    between atoms: C4_4  and  C6_6 
REMARK    6  A    between atoms: C5_5  and  C7_7 
REMARK    7  A    between atoms: C6_6  and  C8_8 
REMARK    8  A    between atoms: C7_7  and  C9_9 
REMARK    9  A    between atoms: C8_8  and  C10_10 
USER                              x       y       z     vdW  Elec       q    Type
USER                           _______ _______ _______ _____ _____    ______ ____
ROOT
ATOM      1  C1  MOL C   1      26.903  38.607  27.306 -0.42 -0.00    +0.000 C 
ENDROOT
BRANCH   1   2
ATOM      2  C2  MOL C   1      26.256  39.747  28.106 -0.51 -0.00    +0.000 C 
BRANCH   2   3
ATOM      3  C4  MOL C   1      27.403  40.738  28.491 -0.38 -0.00    +0.000 C 
BRANCH   3   4
ATOM      4  C6  MOL C   1      28.851  40.279  27.933 -0.26 -0.00    +0.000 C 
BRANCH   4   5
ATOM      5  C8  MOL C   1      29.878  39.872  28.965 -0.07 +0.00    -0.000 C 
BRANCH   5   6
ATOM      6  C10 MOL C   1      29.207  39.913  30.333 -0.46 +0.00    -0.005 C 
ATOM      7  C12 MOL C   1      29.868  40.738  31.396 -0.61 -0.00    +0.005 C 
ENDBRANCH   5   6
ENDBRANCH   4   5
ENDBRANCH   3   4
ENDBRANCH   2   3
ENDBRANCH   1   2
BRANCH   1   8
ATOM      8  C3  MOL C   1      26.250  37.288  27.882 +0.71 -0.00    +0.000 C 
BRANCH   8   9
ATOM      9  C5  MOL C   1      27.448  36.326  28.478 -0.28 -0.00    +0.000 C 
BRANCH   9  10
ATOM     10  C7  MOL C   1      28.816  37.032  28.804 -0.39 +0.00    -0.000 C 
BRANCH  10  11
ATOM     11  C9  MOL C   1      29.933  36.859  27.717 -0.52 +0.00    -0.005 C 
ATOM     12  C11 MOL C   1      29.237  36.298  26.428 -0.45 -0.00    +0.005 C 
ENDBRANCH  10  11
ENDBRANCH   9  10
ENDBRANCH   8   9
ENDBRANCH   1   8
TORSDOF 9
TER
ENDMDL
MODEL       33
USER    Run = 33
USER    DPF = lac1.dpf
USER  
USER    Estimated Free Energy of Binding    =   -0.71 kcal/mol  [=(1)+(2)+(3)-(4)]
USER    Estimated Inhibition Constant, Ki   =  299.86 mM (millimolar)  [Temperature = 298.15 K]
USER    
USER    (1) Final Intermolecular Energy     =   -3.22 kcal/mol
USER        vdW + Hbond + desolv Energy     =   -3.21 kcal/mol
USER        Electrostatic Energy            =   -0.00 kcal/mol
USER    (2) Final Total Internal Energy     =   -0.47 kcal/mol
USER    (3) Torsional Free Energy           =   +2.68 kcal/mol
USER    (4) Unbound System's Energy         =   -0.29 kcal/mol
USER    
USER    
USER    NEWDPF move PE_ligand.pdbqt
USER    NEWDPF about 3.037000 5.209000 3.149000
USER    NEWDPF tran0 28.159528 39.980168 28.166075
USER    NEWDPF quaternion0 -0.609825 0.119538 0.781315 0.058059
USER    NEWDPF axisangle0 -0.610856 0.119740 0.782635 173.343157
USER    NEWDPF quat0 -0.610856 0.119740 0.782635 173.343157
USER    NEWDPF dihe0 179.78 -37.69 -134.74 -178.97 150.61 127.59 -161.53 -18.10 11.71 
USER  keepresnum = 1 
USER  
REMARK  9 active torsions:
REMARK  status: ('A' for Active; 'I' for Inactive)
REMARK    1  A    between atoms: C1_1  and  C2_2 
REMARK    2  A    between atoms: C1_1  and  C3_3 
REMARK    3  A    between atoms: C2_2  and  C4_4 
REMARK    4  A    between atoms: C3_3  and  C5_5 
REMARK    5  A    between atoms: C4_4  and  C6_6 
REMARK    6  A    between atoms: C5_5  and  C7_7 
REMARK    7  A    between atoms: C6_6  and  C8_8 
REMARK    8  A    between atoms: C7_7  and  C9_9 
REMARK    9  A    between atoms: C8_8  and  C10_10 
USER                              x       y       z     vdW  Elec       q    Type
USER                           _______ _______ _______ _____ _____    ______ ____
ROOT
ATOM      1  C1  MOL C   1      27.405  39.248  28.667 -0.51 -0.00    +0.000 C 
ENDROOT
BRANCH   1   2
ATOM      2  C2  MOL C   1      27.486  39.604  27.176 -0.57 -0.00    +0.000 C 
BRANCH   2   3
ATOM      3  C4  MOL C   1      28.989  39.904  26.863 -0.19 -0.00    +0.000 C 
BRANCH   3   4
ATOM      4  C6  MOL C   1      30.005  39.211  27.915 -0.37 -0.00    +0.000 C 
BRANCH   4   5
ATOM      5  C8  MOL C   1      29.977  37.701  27.992 -0.45 +0.00    -0.000 C 
BRANCH   5   6
ATOM      6  C10 MOL C   1      29.691  37.168  26.592 -0.44 +0.00    -0.005 C 
ATOM      7  C12 MOL C   1      28.516  36.250  26.434 -0.40 -0.00    +0.005 C 
ENDBRANCH   5   6
ENDBRANCH   4   5
ENDBRANCH   3   4
ENDBRANCH   2   3
ENDBRANCH   1   2
BRANCH   1   8
ATOM      8  C3  MOL C   1      27.042  40.608  29.388 +0.53 -0.00    +0.000 C 
BRANCH   8   9
ATOM      9  C5  MOL C   1      27.114  40.374  31.017 +0.29 -0.00    +0.000 C 
BRANCH   9  10
ATOM     10  C7  MOL C   1      28.543  40.111  31.624 -0.47 +0.00    -0.000 C 
BRANCH  10  11
ATOM     11  C9  MOL C   1      29.745  40.473  30.684 -0.36 +0.00    -0.005 C 
ATOM     12  C11 MOL C   1      30.983  40.749  31.607 -0.28 -0.01    +0.005 C 
ENDBRANCH  10  11
ENDBRANCH   9  10
ENDBRANCH   8   9
ENDBRANCH   1   8
TORSDOF 9
TER
ENDMDL
MODEL       34
USER    Run = 34
USER    DPF = lac1.dpf
USER  
USER    Estimated Free Energy of Binding    =   -2.71 kcal/mol  [=(1)+(2)+(3)-(4)]
USER    Estimated Inhibition Constant, Ki   =   10.28 mM (millimolar)  [Temperature = 298.15 K]
USER    
USER    (1) Final Intermolecular Energy     =   -5.54 kcal/mol
USER        vdW + Hbond + desolv Energy     =   -5.54 kcal/mol
USER        Electrostatic Energy            =   +0.00 kcal/mol
USER    (2) Final Total Internal Energy     =   -0.14 kcal/mol
USER    (3) Torsional Free Energy           =   +2.68 kcal/mol
USER    (4) Unbound System's Energy         =   -0.29 kcal/mol
USER    
USER    
USER    NEWDPF move PE_ligand.pdbqt
USER    NEWDPF about 3.037000 5.209000 3.149000
USER    NEWDPF tran0 27.277076 38.873653 27.346239
USER    NEWDPF quaternion0 0.478462 -0.649537 -0.575248 0.135150
USER    NEWDPF axisangle0 0.482893 -0.655551 -0.580575 164.465368
USER    NEWDPF quat0 0.482893 -0.655551 -0.580575 164.465368
USER    NEWDPF dihe0 -92.94 39.25 144.43 -160.30 -29.19 -25.35 -109.61 80.06 -6.98 
USER  keepresnum = 1 
USER  
REMARK  9 active torsions:
REMARK  status: ('A' for Active; 'I' for Inactive)
REMARK    1  A    between atoms: C1_1  and  C2_2 
REMARK    2  A    between atoms: C1_1  and  C3_3 
REMARK    3  A    between atoms: C2_2  and  C4_4 
REMARK    4  A    between atoms: C3_3  and  C5_5 
REMARK    5  A    between atoms: C4_4  and  C6_6 
REMARK    6  A    between atoms: C5_5  and  C7_7 
REMARK    7  A    between atoms: C6_6  and  C8_8 
REMARK    8  A    between atoms: C7_7  and  C9_9 
REMARK    9  A    between atoms: C8_8  and  C10_10 
USER                              x       y       z     vdW  Elec       q    Type
USER                           _______ _______ _______ _____ _____    ______ ____
ROOT
ATOM      1  C1  MOL C   1      26.366  39.485  27.738 -0.51 -0.00    +0.000 C 
ENDROOT
BRANCH   1   2
ATOM      2  C2  MOL C   1      26.421  38.638  26.459 -0.25 -0.00    +0.000 C 
BRANCH   2   3
ATOM      3  C4  MOL C   1      27.722  37.774  26.543 -0.35 -0.00    +0.000 C 
BRANCH   3   4
ATOM      4  C6  MOL C   1      27.595  36.537  27.579 -0.28 -0.00    +0.000 C 
BRANCH   4   5
ATOM      5  C8  MOL C   1      28.550  36.532  28.751 -0.48 +0.00    -0.000 C 
BRANCH   5   6
ATOM      6  C10 MOL C   1      29.945  36.838  28.217 -0.52 +0.00    -0.005 C 
ATOM      7  C12 MOL C   1      30.312  36.258  26.883 -0.50 -0.00    +0.005 C 
ENDBRANCH   5   6
ENDBRANCH   4   5
ENDBRANCH   3   4
ENDBRANCH   2   3
ENDBRANCH   1   2
BRANCH   1   8
ATOM      8  C3  MOL C   1      27.433  40.629  27.511 -0.56 -0.00    +0.000 C 
BRANCH   8   9
ATOM      9  C5  MOL C   1      28.939  39.987  27.691 -0.47 -0.00    +0.000 C 
BRANCH   9  10
ATOM     10  C7  MOL C   1      29.495  39.906  29.162 -0.46 +0.00    -0.000 C 
BRANCH  10  11
ATOM     11  C9  MOL C   1      28.418  39.628  30.268 -0.41 +0.00    -0.005 C 
ATOM     12  C11 MOL C   1      28.581  40.745  31.358 -0.75 -0.00    +0.005 C 
ENDBRANCH  10  11
ENDBRANCH   9  10
ENDBRANCH   8   9
ENDBRANCH   1   8
TORSDOF 9
TER
ENDMDL
MODEL       35
USER    Run = 35
USER    DPF = lac1.dpf
USER  
USER    Estimated Free Energy of Binding    =   +1.82 kcal/mol  [=(1)+(2)+(3)-(4)]
USER    
USER    (1) Final Intermolecular Energy     =   -2.25 kcal/mol
USER        vdW + Hbond + desolv Energy     =   -2.25 kcal/mol
USER        Electrostatic Energy            =   +0.00 kcal/mol
USER    (2) Final Total Internal Energy     =   +1.10 kcal/mol
USER    (3) Torsional Free Energy           =   +2.68 kcal/mol
USER    (4) Unbound System's Energy         =   -0.29 kcal/mol
USER    
USER    
USER    NEWDPF move PE_ligand.pdbqt
USER    NEWDPF about 3.037000 5.209000 3.149000
USER    NEWDPF tran0 28.516832 37.052974 27.514657
USER    NEWDPF quaternion0 -0.130780 0.938216 -0.320210 0.010641
USER    NEWDPF axisangle0 -0.130788 0.938269 -0.320228 178.780628
USER    NEWDPF quat0 -0.130788 0.938269 -0.320228 178.780628
USER    NEWDPF dihe0 -53.82 144.22 135.07 88.33 2.97 91.46 -149.95 74.54 71.63 
USER  keepresnum = 1 
USER  
REMARK  9 active torsions:
REMARK  status: ('A' for Active; 'I' for Inactive)
REMARK    1  A    between atoms: C1_1  and  C2_2 
REMARK    2  A    between atoms: C1_1  and  C3_3 
REMARK    3  A    between atoms: C2_2  and  C4_4 
REMARK    4  A    between atoms: C3_3  and  C5_5 
REMARK    5  A    between atoms: C4_4  and  C6_6 
REMARK    6  A    between atoms: C5_5  and  C7_7 
REMARK    7  A    between atoms: C6_6  and  C8_8 
REMARK    8  A    between atoms: C7_7  and  C9_9 
REMARK    9  A    between atoms: C8_8  and  C10_10 
USER                              x       y       z     vdW  Elec       q    Type
USER                           _______ _______ _______ _____ _____    ______ ____
ROOT
ATOM      1  C1  MOL C   1      28.449  37.288  26.376 -0.40 -0.00    +0.000 C 
ENDROOT
BRANCH   1   2
ATOM      2  C2  MOL C   1      27.358  36.649  27.247 +0.31 -0.00    +0.000 C 
BRANCH   2   3
ATOM      3  C4  MOL C   1      26.474  37.818  27.794 -0.20 -0.00    +0.000 C 
BRANCH   3   4
ATOM      4  C6  MOL C   1      26.311  39.035  26.740 -0.41 -0.00    +0.000 C 
BRANCH   4   5
ATOM      5  C8  MOL C   1      27.388  40.096  26.756 -0.56 +0.00    -0.000 C 
BRANCH   5   6
ATOM      6  C10 MOL C   1      27.482  40.644  28.176 -0.49 +0.00    -0.005 C 
ATOM      7  C12 MOL C   1      26.580  40.034  29.207 +0.22 -0.00    +0.005 C 
ENDBRANCH   5   6
ENDBRANCH   4   5
ENDBRANCH   3   4
ENDBRANCH   2   3
ENDBRANCH   1   2
BRANCH   1   8
ATOM      8  C3  MOL C   1      29.648  36.258  26.409 -0.47 -0.00    +0.000 C 
BRANCH   8   9
ATOM      9  C5  MOL C   1      30.483  36.468  27.813 -0.51 -0.00    +0.000 C 
BRANCH   9  10
ATOM     10  C7  MOL C   1      29.645  36.932  29.063 +0.50 +0.00    -0.000 C 
BRANCH  10  11
ATOM     11  C9  MOL C   1      29.262  38.453  29.083 -0.25 +0.00    -0.005 C 
ATOM     12  C11 MOL C   1      30.289  39.198  28.159 +0.01 -0.00    +0.005 C 
ENDBRANCH  10  11
ENDBRANCH   9  10
ENDBRANCH   8   9
ENDBRANCH   1   8
TORSDOF 9
TER
ENDMDL
MODEL       36
USER    Run = 36
USER    DPF = lac1.dpf
USER  
USER    Estimated Free Energy of Binding    =   -3.40 kcal/mol  [=(1)+(2)+(3)-(4)]
USER    Estimated Inhibition Constant, Ki   =    3.24 mM (millimolar)  [Temperature = 298.15 K]
USER    
USER    (1) Final Intermolecular Energy     =   -5.74 kcal/mol
USER        vdW + Hbond + desolv Energy     =   -5.74 kcal/mol
USER        Electrostatic Energy            =   -0.00 kcal/mol
USER    (2) Final Total Internal Energy     =   -0.63 kcal/mol
USER    (3) Torsional Free Energy           =   +2.68 kcal/mol
USER    (4) Unbound System's Energy         =   -0.29 kcal/mol
USER    
USER    
USER    NEWDPF move PE_ligand.pdbqt
USER    NEWDPF about 3.037000 5.209000 3.149000
USER    NEWDPF tran0 28.126645 37.811960 26.623014
USER    NEWDPF quaternion0 0.323369 0.129603 -0.448577 0.823052
USER    NEWDPF axisangle0 0.569345 0.228187 -0.789795 69.217062
USER    NEWDPF quat0 0.569345 0.228187 -0.789795 69.217062
USER    NEWDPF dihe0 104.39 -180.00 -177.83 39.39 -170.34 162.59 -148.89 89.21 -177.80 
USER  keepresnum = 1 
USER  
REMARK  9 active torsions:
REMARK  status: ('A' for Active; 'I' for Inactive)
REMARK    1  A    between atoms: C1_1  and  C2_2 
REMARK    2  A    between atoms: C1_1  and  C3_3 
REMARK    3  A    between atoms: C2_2  and  C4_4 
REMARK    4  A    between atoms: C3_3  and  C5_5 
REMARK    5  A    between atoms: C4_4  and  C6_6 
REMARK    6  A    between atoms: C5_5  and  C7_7 
REMARK    7  A    between atoms: C6_6  and  C8_8 
REMARK    8  A    between atoms: C7_7  and  C9_9 
REMARK    9  A    between atoms: C8_8  and  C10_10 
USER                              x       y       z     vdW  Elec       q    Type
USER                           _______ _______ _______ _____ _____    ______ ____
ROOT
ATOM      1  C1  MOL C   1      27.109  38.379  26.637 -0.35 -0.00    +0.000 C 
ENDROOT
BRANCH   1   2
ATOM      2  C2  MOL C   1      28.509  39.003  26.727 -0.51 -0.00    +0.000 C 
BRANCH   2   3
ATOM      3  C4  MOL C   1      28.335  40.410  27.387 -0.49 -0.00    +0.000 C 
BRANCH   3   4
ATOM      4  C6  MOL C   1      27.181  40.440  28.522 -0.52 -0.00    +0.000 C 
BRANCH   4   5
ATOM      5  C8  MOL C   1      27.641  40.363  29.960 -0.51 +0.00    -0.000 C 
BRANCH   5   6
ATOM      6  C10 MOL C   1      29.135  40.057  29.956 -0.58 +0.00    -0.005 C 
ATOM      7  C12 MOL C   1      29.903  40.380  31.202 -0.49 -0.00    +0.005 C 
ENDBRANCH   5   6
ENDBRANCH   4   5
ENDBRANCH   3   4
ENDBRANCH   2   3
ENDBRANCH   1   2
BRANCH   1   8
ATOM      8  C3  MOL C   1      26.983  37.482  27.933 -0.30 -0.00    +0.000 C 
BRANCH   8   9
ATOM      9  C5  MOL C   1      28.071  36.250  27.828 -0.47 -0.00    +0.000 C 
BRANCH   9  10
ATOM     10  C7  MOL C   1      29.377  36.395  28.695 -0.51 +0.00    -0.000 C 
BRANCH  10  11
ATOM     11  C9  MOL C   1      30.724  36.251  27.904 -0.54 +0.00    -0.005 C 
ATOM     12  C11 MOL C   1      30.372  36.342  26.378 -0.46 -0.00    +0.005 C 
ENDBRANCH  10  11
ENDBRANCH   9  10
ENDBRANCH   8   9
ENDBRANCH   1   8
TORSDOF 9
TER
ENDMDL
MODEL       37
USER    Run = 37
USER    DPF = lac1.dpf
USER  
USER    Estimated Free Energy of Binding    =   +1.40 kcal/mol  [=(1)+(2)+(3)-(4)]
USER    
USER    (1) Final Intermolecular Energy     =   -3.19 kcal/mol
USER        vdW + Hbond + desolv Energy     =   -3.19 kcal/mol
USER        Electrostatic Energy            =   +0.00 kcal/mol
USER    (2) Final Total Internal Energy     =   +1.61 kcal/mol
USER    (3) Torsional Free Energy           =   +2.68 kcal/mol
USER    (4) Unbound System's Energy         =   -0.29 kcal/mol
USER    
USER    
USER    NEWDPF move PE_ligand.pdbqt
USER    NEWDPF about 3.037000 5.209000 3.149000
USER    NEWDPF tran0 29.809293 40.008431 27.849926
USER    NEWDPF quaternion0 0.563489 -0.092494 -0.770200 -0.284106
USER    NEWDPF axisangle0 0.587707 -0.096469 -0.803302 -146.989111
USER    NEWDPF quat0 0.587707 -0.096469 -0.803302 -146.989111
USER    NEWDPF dihe0 20.28 159.58 172.34 74.55 170.67 45.93 164.43 -128.33 103.67 
USER  keepresnum = 1 
USER  
REMARK  9 active torsions:
REMARK  status: ('A' for Active; 'I' for Inactive)
REMARK    1  A    between atoms: C1_1  and  C2_2 
REMARK    2  A    between atoms: C1_1  and  C3_3 
REMARK    3  A    between atoms: C2_2  and  C4_4 
REMARK    4  A    between atoms: C3_3  and  C5_5 
REMARK    5  A    between atoms: C4_4  and  C6_6 
REMARK    6  A    between atoms: C5_5  and  C7_7 
REMARK    7  A    between atoms: C6_6  and  C8_8 
REMARK    8  A    between atoms: C7_7  and  C9_9 
REMARK    9  A    between atoms: C8_8  and  C10_10 
USER                              x       y       z     vdW  Elec       q    Type
USER                           _______ _______ _______ _____ _____    ______ ____
ROOT
ATOM      1  C1  MOL C   1      29.425  39.212  28.609 -0.57 -0.00    +0.000 C 
ENDROOT
BRANCH   1   2
ATOM      2  C2  MOL C   1      29.264  39.178  27.082 -0.35 -0.00    +0.000 C 
BRANCH   2   3
ATOM      3  C4  MOL C   1      29.901  37.837  26.589 -0.06 -0.00    +0.000 C 
BRANCH   3   4
ATOM      4  C6  MOL C   1      30.749  37.078  27.740 +0.24 -0.00    +0.000 C 
BRANCH   4   5
ATOM      5  C8  MOL C   1      29.960  36.250  28.730 -0.45 +0.00    -0.000 C 
BRANCH   5   6
ATOM      6  C10 MOL C   1      28.506  36.706  28.665 -0.49 +0.00    -0.005 C 
ATOM      7  C12 MOL C   1      27.697  36.252  27.487 -0.28 -0.00    +0.005 C 
ENDBRANCH   5   6
ENDBRANCH   4   5
ENDBRANCH   3   4
ENDBRANCH   2   3
ENDBRANCH   1   2
BRANCH   1   8
ATOM      8  C3  MOL C   1      28.623  40.493  29.071 +0.47 -0.00    +0.000 C 
BRANCH   8   9
ATOM      9  C5  MOL C   1      27.012  40.146  29.034 -0.42 -0.00    +0.000 C 
BRANCH   9  10
ATOM     10  C7  MOL C   1      26.597  38.835  28.270 -0.41 +0.00    -0.000 C 
BRANCH  10  11
ATOM     11  C9  MOL C   1      26.263  39.025  26.749 -0.40 +0.00    -0.005 C 
ATOM     12  C11 MOL C   1      26.276  40.567  26.465 -0.46 -0.00    +0.005 C 
ENDBRANCH  10  11
ENDBRANCH   9  10
ENDBRANCH   8   9
ENDBRANCH   1   8
TORSDOF 9
TER
ENDMDL
MODEL       38
USER    Run = 38
USER    DPF = lac1.dpf
USER  
USER    Estimated Free Energy of Binding    =   +1.44 kcal/mol  [=(1)+(2)+(3)-(4)]
USER    
USER    (1) Final Intermolecular Energy     =   -2.97 kcal/mol
USER        vdW + Hbond + desolv Energy     =   -2.97 kcal/mol
USER        Electrostatic Energy            =   +0.00 kcal/mol
USER    (2) Final Total Internal Energy     =   +1.44 kcal/mol
USER    (3) Torsional Free Energy           =   +2.68 kcal/mol
USER    (4) Unbound System's Energy         =   -0.29 kcal/mol
USER    
USER    
USER    NEWDPF move PE_ligand.pdbqt
USER    NEWDPF about 3.037000 5.209000 3.149000
USER    NEWDPF tran0 27.517702 39.944813 28.126022
USER    NEWDPF quaternion0 0.030686 0.988324 -0.050285 0.140520
USER    NEWDPF axisangle0 0.030994 0.998228 -0.050789 163.844088
USER    NEWDPF quat0 0.030994 0.998228 -0.050789 163.844088
USER    NEWDPF dihe0 79.01 155.12 -177.14 88.94 -9.01 -23.96 -146.57 177.19 4.16 
USER  keepresnum = 1 
USER  
REMARK  9 active torsions:
REMARK  status: ('A' for Active; 'I' for Inactive)
REMARK    1  A    between atoms: C1_1  and  C2_2 
REMARK    2  A    between atoms: C1_1  and  C3_3 
REMARK    3  A    between atoms: C2_2  and  C4_4 
REMARK    4  A    between atoms: C3_3  and  C5_5 
REMARK    5  A    between atoms: C4_4  and  C6_6 
REMARK    6  A    between atoms: C5_5  and  C7_7 
REMARK    7  A    between atoms: C6_6  and  C8_8 
REMARK    8  A    between atoms: C7_7  and  C9_9 
REMARK    9  A    between atoms: C8_8  and  C10_10 
USER                              x       y       z     vdW  Elec       q    Type
USER                           _______ _______ _______ _____ _____    ______ ____
ROOT
ATOM      1  C1  MOL C   1      27.450  40.739  27.276 -0.40 -0.00    +0.000 C 
ENDROOT
BRANCH   1   2
ATOM      2  C2  MOL C   1      26.279  40.143  28.071 -0.45 -0.00    +0.000 C 
BRANCH   2   3
ATOM      3  C4  MOL C   1      26.866  39.638  29.430 +0.11 -0.00    +0.000 C 
BRANCH   3   4
ATOM      4  C6  MOL C   1      28.008  40.615  30.030 -0.29 -0.00    +0.000 C 
BRANCH   4   5
ATOM      5  C8  MOL C   1      29.444  40.217  29.777 -0.31 +0.00    -0.000 C 
BRANCH   5   6
ATOM      6  C10 MOL C   1      29.439  38.826  29.152 -0.15 +0.00    -0.005 C 
ATOM      7  C12 MOL C   1      30.328  38.604  27.965 +0.08 -0.00    +0.005 C 
ENDBRANCH   5   6
ENDBRANCH   4   5
ENDBRANCH   3   4
ENDBRANCH   2   3
ENDBRANCH   1   2
BRANCH   1   8
ATOM      8  C3  MOL C   1      28.080  39.511  26.504 -0.56 -0.00    +0.000 C 
BRANCH   8   9
ATOM      9  C5  MOL C   1      26.941  38.328  26.379 -0.24 -0.00    +0.000 C 
BRANCH   9  10
ATOM     10  C7  MOL C   1      26.785  37.373  27.621 +0.09 +0.00    -0.000 C 
BRANCH  10  11
ATOM     11  C9  MOL C   1      27.899  36.279  27.767 -0.44 +0.00    -0.005 C 
ATOM     12  C11 MOL C   1      28.717  36.275  26.428 -0.41 -0.00    +0.005 C 
ENDBRANCH  10  11
ENDBRANCH   9  10
ENDBRANCH   8   9
ENDBRANCH   1   8
TORSDOF 9
TER
ENDMDL
MODEL       39
USER    Run = 39
USER    DPF = lac1.dpf
USER  
USER    Estimated Free Energy of Binding    =   -1.03 kcal/mol  [=(1)+(2)+(3)-(4)]
USER    Estimated Inhibition Constant, Ki   =  174.54 mM (millimolar)  [Temperature = 298.15 K]
USER    
USER    (1) Final Intermolecular Energy     =   -4.15 kcal/mol
USER        vdW + Hbond + desolv Energy     =   -4.14 kcal/mol
USER        Electrostatic Energy            =   -0.00 kcal/mol
USER    (2) Final Total Internal Energy     =   +0.14 kcal/mol
USER    (3) Torsional Free Energy           =   +2.68 kcal/mol
USER    (4) Unbound System's Energy         =   -0.29 kcal/mol
USER    
USER    
USER    NEWDPF move PE_ligand.pdbqt
USER    NEWDPF about 3.037000 5.209000 3.149000
USER    NEWDPF tran0 27.565967 38.239258 27.986859
USER    NEWDPF quaternion0 0.123388 0.964605 -0.100659 0.210193
USER    NEWDPF axisangle0 0.126208 0.986646 -0.102959 155.732644
USER    NEWDPF quat0 0.126208 0.986646 -0.102959 155.732644
USER    NEWDPF dihe0 -16.58 -177.04 -28.25 84.44 128.08 3.67 101.83 102.62 80.86 
USER  keepresnum = 1 
USER  
REMARK  9 active torsions:
REMARK  status: ('A' for Active; 'I' for Inactive)
REMARK    1  A    between atoms: C1_1  and  C2_2 
REMARK    2  A    between atoms: C1_1  and  C3_3 
REMARK    3  A    between atoms: C2_2  and  C4_4 
REMARK    4  A    between atoms: C3_3  and  C5_5 
REMARK    5  A    between atoms: C4_4  and  C6_6 
REMARK    6  A    between atoms: C5_5  and  C7_7 
REMARK    7  A    between atoms: C6_6  and  C8_8 
REMARK    8  A    between atoms: C7_7  and  C9_9 
REMARK    9  A    between atoms: C8_8  and  C10_10 
USER                              x       y       z     vdW  Elec       q    Type
USER                           _______ _______ _______ _____ _____    ______ ____
ROOT
ATOM      1  C1  MOL C   1      27.507  38.933  27.053 -0.48 -0.00    +0.000 C 
ENDROOT
BRANCH   1   2
ATOM      2  C2  MOL C   1      26.384  38.655  28.063 -0.41 -0.00    +0.000 C 
BRANCH   2   3
ATOM      3  C4  MOL C   1      26.342  39.875  29.040 +0.14 -0.00    +0.000 C 
BRANCH   3   4
ATOM      4  C6  MOL C   1      27.578  39.892  30.085 -0.25 -0.00    +0.000 C 
BRANCH   4   5
ATOM      5  C8  MOL C   1      28.926  39.465  29.549 -0.55 +0.00    -0.000 C 
BRANCH   5   6
ATOM      6  C10 MOL C   1      29.984  40.372  30.168 +0.15 +0.00    -0.005 C 
ATOM      7  C12 MOL C   1      29.805  40.750  31.608 -0.63 -0.01    +0.005 C 
ENDBRANCH   5   6
ENDBRANCH   4   5
ENDBRANCH   3   4
ENDBRANCH   2   3
ENDBRANCH   1   2
BRANCH   1   8
ATOM      8  C3  MOL C   1      27.801  37.533  26.381 -0.31 -0.00    +0.000 C 
BRANCH   8   9
ATOM      9  C5  MOL C   1      28.068  36.425  27.570 -0.44 -0.00    +0.000 C 
BRANCH   9  10
ATOM     10  C7  MOL C   1      29.209  36.764  28.600 -0.52 +0.00    -0.000 C 
BRANCH  10  11
ATOM     11  C9  MOL C   1      30.665  36.441  28.115 -0.44 +0.00    -0.005 C 
ATOM     12  C11 MOL C   1      30.599  36.255  26.558 -0.40 -0.00    +0.005 C 
ENDBRANCH  10  11
ENDBRANCH   9  10
ENDBRANCH   8   9
ENDBRANCH   1   8
TORSDOF 9
TER
ENDMDL
MODEL       40
USER    Run = 40
USER    DPF = lac1.dpf
USER  
USER    Estimated Free Energy of Binding    =   -0.97 kcal/mol  [=(1)+(2)+(3)-(4)]
USER    Estimated Inhibition Constant, Ki   =  195.82 mM (millimolar)  [Temperature = 298.15 K]
USER    
USER    (1) Final Intermolecular Energy     =   -3.90 kcal/mol
USER        vdW + Hbond + desolv Energy     =   -3.90 kcal/mol
USER        Electrostatic Energy            =   +0.00 kcal/mol
USER    (2) Final Total Internal Energy     =   -0.04 kcal/mol
USER    (3) Torsional Free Energy           =   +2.68 kcal/mol
USER    (4) Unbound System's Energy         =   -0.29 kcal/mol
USER    
USER    
USER    NEWDPF move PE_ligand.pdbqt
USER    NEWDPF about 3.037000 5.209000 3.149000
USER    NEWDPF tran0 28.369919 39.306484 27.817029
USER    NEWDPF quaternion0 0.842803 -0.162642 -0.411293 0.306705
USER    NEWDPF axisangle0 0.885479 -0.170878 -0.432120 144.278519
USER    NEWDPF quat0 0.885479 -0.170878 -0.432120 144.278519
USER    NEWDPF dihe0 -154.73 -51.17 168.58 63.73 165.64 180.00 -156.14 35.31 -7.07 
USER  keepresnum = 1 
USER  
REMARK  9 active torsions:
REMARK  status: ('A' for Active; 'I' for Inactive)
REMARK    1  A    between atoms: C1_1  and  C2_2 
REMARK    2  A    between atoms: C1_1  and  C3_3 
REMARK    3  A    between atoms: C2_2  and  C4_4 
REMARK    4  A    between atoms: C3_3  and  C5_5 
REMARK    5  A    between atoms: C4_4  and  C6_6 
REMARK    6  A    between atoms: C5_5  and  C7_7 
REMARK    7  A    between atoms: C6_6  and  C8_8 
REMARK    8  A    between atoms: C7_7  and  C9_9 
REMARK    9  A    between atoms: C8_8  and  C10_10 
USER                              x       y       z     vdW  Elec       q    Type
USER                           _______ _______ _______ _____ _____    ______ ____
ROOT
ATOM      1  C1  MOL C   1      27.391  39.137  27.208 -0.50 -0.00    +0.000 C 
ENDROOT
BRANCH   1   2
ATOM      2  C2  MOL C   1      28.789  39.419  26.639 -0.39 -0.00    +0.000 C 
BRANCH   2   3
ATOM      3  C4  MOL C   1      29.801  39.251  27.820 -0.41 -0.00    +0.000 C 
BRANCH   3   4
ATOM      4  C6  MOL C   1      29.295  38.201  28.943 -0.31 -0.00    +0.000 C 
BRANCH   4   5
ATOM      5  C8  MOL C   1      29.406  36.733  28.599 -0.51 +0.00    -0.000 C 
BRANCH   5   6
ATOM      6  C10 MOL C   1      29.456  36.612  27.080 -0.48 +0.00    -0.005 C 
ATOM      7  C12 MOL C   1      28.179  36.257  26.378 -0.29 -0.00    +0.005 C 
ENDBRANCH   5   6
ENDBRANCH   4   5
ENDBRANCH   3   4
ENDBRANCH   2   3
ENDBRANCH   1   2
BRANCH   1   8
ATOM      8  C3  MOL C   1      27.022  40.434  28.034 -0.58 -0.00    +0.000 C 
BRANCH   8   9
ATOM      9  C5  MOL C   1      26.780  40.004  29.606 +0.28 -0.00    +0.000 C 
BRANCH   9  10
ATOM     10  C7  MOL C   1      27.715  40.690  30.670 -0.53 +0.00    -0.000 C 
BRANCH  10  11
ATOM     11  C9  MOL C   1      28.896  39.801  31.194 +0.36 +0.00    -0.005 C 
ATOM     12  C11 MOL C   1      30.137  40.744  31.374 -0.53 -0.00    +0.005 C 
ENDBRANCH  10  11
ENDBRANCH   9  10
ENDBRANCH   8   9
ENDBRANCH   1   8
TORSDOF 9
TER
ENDMDL
MODEL       41
USER    Run = 41
USER    DPF = lac1.dpf
USER  
USER    Estimated Free Energy of Binding    =   +0.07 kcal/mol  [=(1)+(2)+(3)-(4)]
USER    
USER    (1) Final Intermolecular Energy     =   -2.73 kcal/mol
USER        vdW + Hbond + desolv Energy     =   -2.74 kcal/mol
USER        Electrostatic Energy            =   +0.00 kcal/mol
USER    (2) Final Total Internal Energy     =   -0.17 kcal/mol
USER    (3) Torsional Free Energy           =   +2.68 kcal/mol
USER    (4) Unbound System's Energy         =   -0.29 kcal/mol
USER    
USER    
USER    NEWDPF move PE_ligand.pdbqt
USER    NEWDPF about 3.037000 5.209000 3.149000
USER    NEWDPF tran0 28.383467 37.625796 27.843993
USER    NEWDPF quaternion0 -0.185960 0.223373 -0.665664 -0.687324
USER    NEWDPF axisangle0 -0.256020 0.307527 -0.916450 -93.162693
USER    NEWDPF quat0 -0.256020 0.307527 -0.916450 -93.162693
USER    NEWDPF dihe0 -25.84 100.47 -53.88 168.14 -29.31 -115.37 180.00 -36.13 5.48 
USER  keepresnum = 1 
USER  
REMARK  9 active torsions:
REMARK  status: ('A' for Active; 'I' for Inactive)
REMARK    1  A    between atoms: C1_1  and  C2_2 
REMARK    2  A    between atoms: C1_1  and  C3_3 
REMARK    3  A    between atoms: C2_2  and  C4_4 
REMARK    4  A    between atoms: C3_3  and  C5_5 
REMARK    5  A    between atoms: C4_4  and  C6_6 
REMARK    6  A    between atoms: C5_5  and  C7_7 
REMARK    7  A    between atoms: C6_6  and  C8_8 
REMARK    8  A    between atoms: C7_7  and  C9_9 
REMARK    9  A    between atoms: C8_8  and  C10_10 
USER                              x       y       z     vdW  Elec       q    Type
USER                           _______ _______ _______ _____ _____    ______ ____
ROOT
ATOM      1  C1  MOL C   1      29.533  37.742  27.996 -0.52 -0.00    +0.000 C 
ENDROOT
BRANCH   1   2
ATOM      2  C2  MOL C   1      28.733  36.432  28.011 -0.52 -0.00    +0.000 C 
BRANCH   2   3
ATOM      3  C4  MOL C   1      27.443  36.679  27.161 +0.20 -0.00    +0.000 C 
BRANCH   3   4
ATOM      4  C6  MOL C   1      27.416  38.138  26.460 -0.35 -0.00    +0.000 C 
BRANCH   4   5
ATOM      5  C8  MOL C   1      26.286  39.060  26.857 -0.42 +0.00    -0.000 C 
BRANCH   5   6
ATOM      6  C10 MOL C   1      26.893  40.263  27.571 -0.58 +0.00    -0.005 C 
ATOM      7  C12 MOL C   1      28.279  40.671  27.168 +0.01 -0.00    +0.005 C 
ENDBRANCH   5   6
ENDBRANCH   4   5
ENDBRANCH   3   4
ENDBRANCH   2   3
ENDBRANCH   1   2
BRANCH   1   8
ATOM      8  C3  MOL C   1      28.972  38.571  29.220 -0.27 -0.00    +0.000 C 
BRANCH   8   9
ATOM      9  C5  MOL C   1      29.963  39.862  29.478 +0.39 -0.00    +0.000 C 
BRANCH   9  10
ATOM     10  C7  MOL C   1      29.643  40.749  30.738 -0.32 +0.00    -0.000 C 
BRANCH  10  11
ATOM     11  C9  MOL C   1      28.451  40.245  31.625 -0.59 +0.00    -0.005 C 
ATOM     12  C11 MOL C   1      27.149  40.375  30.761 +0.23 -0.00    +0.005 C 
ENDBRANCH  10  11
ENDBRANCH   9  10
ENDBRANCH   8   9
ENDBRANCH   1   8
TORSDOF 9
TER
ENDMDL
MODEL       42
USER    Run = 42
USER    DPF = lac1.dpf
USER  
USER    Estimated Free Energy of Binding    =   +2.38 kcal/mol  [=(1)+(2)+(3)-(4)]
USER    
USER    (1) Final Intermolecular Energy     =   -1.62 kcal/mol
USER        vdW + Hbond + desolv Energy     =   -1.62 kcal/mol
USER        Electrostatic Energy            =   -0.00 kcal/mol
USER    (2) Final Total Internal Energy     =   +1.02 kcal/mol
USER    (3) Torsional Free Energy           =   +2.68 kcal/mol
USER    (4) Unbound System's Energy         =   -0.29 kcal/mol
USER    
USER    
USER    NEWDPF move PE_ligand.pdbqt
USER    NEWDPF about 3.037000 5.209000 3.149000
USER    NEWDPF tran0 28.432944 40.687745 29.170699
USER    NEWDPF quaternion0 0.413829 0.200677 -0.158006 -0.873790
USER    NEWDPF axisangle0 0.850967 0.412658 -0.324912 -58.195891
USER    NEWDPF quat0 0.850967 0.412658 -0.324912 -58.195891
USER    NEWDPF dihe0 -133.33 170.15 -105.32 -67.87 -152.35 76.74 -51.86 88.09 -115.41 
USER  keepresnum = 1 
USER  
REMARK  9 active torsions:
REMARK  status: ('A' for Active; 'I' for Inactive)
REMARK    1  A    between atoms: C1_1  and  C2_2 
REMARK    2  A    between atoms: C1_1  and  C3_3 
REMARK    3  A    between atoms: C2_2  and  C4_4 
REMARK    4  A    between atoms: C3_3  and  C5_5 
REMARK    5  A    between atoms: C4_4  and  C6_6 
REMARK    6  A    between atoms: C5_5  and  C7_7 
REMARK    7  A    between atoms: C6_6  and  C8_8 
REMARK    8  A    between atoms: C7_7  and  C9_9 
REMARK    9  A    between atoms: C8_8  and  C10_10 
USER                              x       y       z     vdW  Elec       q    Type
USER                           _______ _______ _______ _____ _____    ______ ____
ROOT
ATOM      1  C1  MOL C   1      28.893  40.636  30.240 -0.11 -0.00    +0.000 C 
ENDROOT
BRANCH   1   2
ATOM      2  C2  MOL C   1      29.613  40.345  28.915 +0.65 -0.00    +0.000 C 
BRANCH   2   3
ATOM      3  C4  MOL C   1      29.561  38.796  28.702 -0.43 -0.00    +0.000 C 
BRANCH   3   4
ATOM      4  C6  MOL C   1      29.099  38.378  27.208 -0.50 -0.00    +0.000 C 
BRANCH   4   5
ATOM      5  C8  MOL C   1      30.096  37.595  26.384 +0.12 +0.00    -0.000 C 
BRANCH   5   6
ATOM      6  C10 MOL C   1      30.328  36.258  27.078 -0.51 +0.00    -0.005 C 
ATOM      7  C12 MOL C   1      31.227  36.255  28.278 -0.22 -0.00    +0.005 C 
ENDBRANCH   5   6
ENDBRANCH   4   5
ENDBRANCH   3   4
ENDBRANCH   2   3
ENDBRANCH   1   2
BRANCH   1   8
ATOM      8  C3  MOL C   1      27.762  39.535  30.335 +0.84 -0.00    +0.000 C 
BRANCH   8   9
ATOM      9  C5  MOL C   1      26.659  39.811  29.143 -0.13 -0.00    +0.000 C 
BRANCH   9  10
ATOM     10  C7  MOL C   1      27.120  40.748  27.965 -0.51 +0.00    -0.000 C 
BRANCH  10  11
ATOM     11  C9  MOL C   1      26.951  40.147  26.527 -0.53 +0.00    -0.005 C 
ATOM     12  C11 MOL C   1      26.254  38.751  26.691 -0.30 -0.00    +0.005 C 
ENDBRANCH  10  11
ENDBRANCH   9  10
ENDBRANCH   8   9
ENDBRANCH   1   8
TORSDOF 9
TER
ENDMDL
MODEL       43
USER    Run = 43
USER    DPF = lac1.dpf
USER  
USER    Estimated Free Energy of Binding    =   -1.68 kcal/mol  [=(1)+(2)+(3)-(4)]
USER    Estimated Inhibition Constant, Ki   =   58.83 mM (millimolar)  [Temperature = 298.15 K]
USER    
USER    (1) Final Intermolecular Energy     =   -4.81 kcal/mol
USER        vdW + Hbond + desolv Energy     =   -4.81 kcal/mol
USER        Electrostatic Energy            =   +0.00 kcal/mol
USER    (2) Final Total Internal Energy     =   +0.16 kcal/mol
USER    (3) Torsional Free Energy           =   +2.68 kcal/mol
USER    (4) Unbound System's Energy         =   -0.29 kcal/mol
USER    
USER    
USER    NEWDPF move PE_ligand.pdbqt
USER    NEWDPF about 3.037000 5.209000 3.149000
USER    NEWDPF tran0 27.746979 38.645498 27.660036
USER    NEWDPF quaternion0 -0.705932 0.322104 0.582258 -0.242663
USER    NEWDPF axisangle0 -0.727682 0.332028 0.600197 -151.912446
USER    NEWDPF quat0 -0.727682 0.332028 0.600197 -151.912446
USER    NEWDPF dihe0 -127.36 99.00 175.65 168.42 -1.18 -46.35 173.36 117.07 52.34 
USER  keepresnum = 1 
USER  
REMARK  9 active torsions:
REMARK  status: ('A' for Active; 'I' for Inactive)
REMARK    1  A    between atoms: C1_1  and  C2_2 
REMARK    2  A    between atoms: C1_1  and  C3_3 
REMARK    3  A    between atoms: C2_2  and  C4_4 
REMARK    4  A    between atoms: C3_3  and  C5_5 
REMARK    5  A    between atoms: C4_4  and  C6_6 
REMARK    6  A    between atoms: C5_5  and  C7_7 
REMARK    7  A    between atoms: C6_6  and  C8_8 
REMARK    8  A    between atoms: C7_7  and  C9_9 
REMARK    9  A    between atoms: C8_8  and  C10_10 
USER                              x       y       z     vdW  Elec       q    Type
USER                           _______ _______ _______ _____ _____    ______ ____
ROOT
ATOM      1  C1  MOL C   1      26.583  38.617  27.640 -0.43 -0.00    +0.000 C 
ENDROOT
BRANCH   1   2
ATOM      2  C2  MOL C   1      27.522  38.617  26.425 -0.42 -0.00    +0.000 C 
BRANCH   2   3
ATOM      3  C4  MOL C   1      28.202  37.210  26.378 -0.37 -0.00    +0.000 C 
BRANCH   3   4
ATOM      4  C6  MOL C   1      27.761  36.252  27.607 -0.38 -0.00    +0.000 C 
BRANCH   4   5
ATOM      5  C8  MOL C   1      28.612  36.313  28.854 -0.49 +0.00    -0.000 C 
BRANCH   5   6
ATOM      6  C10 MOL C   1      29.919  37.011  28.493 -0.37 +0.00    -0.005 C 
ATOM      7  C12 MOL C   1      30.890  36.250  27.640 -0.43 -0.00    +0.005 C 
ENDBRANCH   5   6
ENDBRANCH   4   5
ENDBRANCH   3   4
ENDBRANCH   2   3
ENDBRANCH   1   2
BRANCH   1   8
ATOM      8  C3  MOL C   1      26.847  40.002  28.355 -0.55 -0.00    +0.000 C 
BRANCH   8   9
ATOM      9  C5  MOL C   1      28.456  40.342  28.264 -0.49 -0.00    +0.000 C 
BRANCH   9  10
ATOM     10  C7  MOL C   1      29.284  40.172  29.591 -0.40 +0.00    -0.000 C 
BRANCH  10  11
ATOM     11  C9  MOL C   1      28.473  39.630  30.820 +0.00 +0.00    -0.005 C 
ATOM     12  C11 MOL C   1      27.447  40.746  31.221 -0.47 -0.00    +0.005 C 
ENDBRANCH  10  11
ENDBRANCH   9  10
ENDBRANCH   8   9
ENDBRANCH   1   8
TORSDOF 9
TER
ENDMDL
MODEL       44
USER    Run = 44
USER    DPF = lac1.dpf
USER  
USER    Estimated Free Energy of Binding    =   +1.44 kcal/mol  [=(1)+(2)+(3)-(4)]
USER    
USER    (1) Final Intermolecular Energy     =   -1.36 kcal/mol
USER        vdW + Hbond + desolv Energy     =   -1.36 kcal/mol
USER        Electrostatic Energy            =   +0.00 kcal/mol
USER    (2) Final Total Internal Energy     =   -0.17 kcal/mol
USER    (3) Torsional Free Energy           =   +2.68 kcal/mol
USER    (4) Unbound System's Energy         =   -0.29 kcal/mol
USER    
USER    
USER    NEWDPF move PE_ligand.pdbqt
USER    NEWDPF about 3.037000 5.209000 3.149000
USER    NEWDPF tran0 27.740865 39.275744 27.722310
USER    NEWDPF quaternion0 -0.558915 0.198630 0.768368 0.240356
USER    NEWDPF axisangle0 -0.575795 0.204629 0.791573 152.184865
USER    NEWDPF quat0 -0.575795 0.204629 0.791573 152.184865
USER    NEWDPF dihe0 97.86 55.22 -147.64 -49.05 146.21 74.70 -166.19 -2.44 -8.41 
USER  keepresnum = 1 
USER  
REMARK  9 active torsions:
REMARK  status: ('A' for Active; 'I' for Inactive)
REMARK    1  A    between atoms: C1_1  and  C2_2 
REMARK    2  A    between atoms: C1_1  and  C3_3 
REMARK    3  A    between atoms: C2_2  and  C4_4 
REMARK    4  A    between atoms: C3_3  and  C5_5 
REMARK    5  A    between atoms: C4_4  and  C6_6 
REMARK    6  A    between atoms: C5_5  and  C7_7 
REMARK    7  A    between atoms: C6_6  and  C8_8 
REMARK    8  A    between atoms: C7_7  and  C9_9 
REMARK    9  A    between atoms: C8_8  and  C10_10 
USER                              x       y       z     vdW  Elec       q    Type
USER                           _______ _______ _______ _____ _____    ______ ____
ROOT
ATOM      1  C1  MOL C   1      27.174  38.661  28.534 -0.25 -0.00    +0.000 C 
ENDROOT
BRANCH   1   2
ATOM      2  C2  MOL C   1      27.089  38.471  27.013 -0.40 -0.00    +0.000 C 
BRANCH   2   3
ATOM      3  C4  MOL C   1      28.235  39.330  26.384 -0.52 -0.00    +0.000 C 
BRANCH   3   4
ATOM      4  C6  MOL C   1      29.386  39.728  27.450 -0.07 -0.00    +0.000 C 
BRANCH   4   5
ATOM      5  C8  MOL C   1      30.069  38.587  28.169 -0.23 +0.00    -0.000 C 
BRANCH   5   6
ATOM      6  C10 MOL C   1      29.880  37.327  27.331 -0.46 +0.00    -0.005 C 
ATOM      7  C12 MOL C   1      30.914  36.251  27.468 -0.36 -0.00    +0.005 C 
ENDBRANCH   5   6
ENDBRANCH   4   5
ENDBRANCH   3   4
ENDBRANCH   2   3
ENDBRANCH   1   2
BRANCH   1   8
ATOM      8  C3  MOL C   1      26.605  40.114  28.791 -0.21 -0.00    +0.000 C 
BRANCH   8   9
ATOM      9  C5  MOL C   1      27.188  40.658  30.233 +1.04 -0.00    +0.000 C 
BRANCH   9  10
ATOM     10  C7  MOL C   1      28.405  39.866  30.840 -0.35 +0.00    -0.000 C 
BRANCH  10  11
ATOM     11  C9  MOL C   1      29.446  40.738  31.624 -0.68 +0.00    -0.005 C 
ATOM     12  C11 MOL C   1      30.767  40.749  30.778 +1.14 -0.00    +0.005 C 
ENDBRANCH  10  11
ENDBRANCH   9  10
ENDBRANCH   8   9
ENDBRANCH   1   8
TORSDOF 9
TER
ENDMDL
MODEL       45
USER    Run = 45
USER    DPF = lac1.dpf
USER  
USER    Estimated Free Energy of Binding    =   -1.03 kcal/mol  [=(1)+(2)+(3)-(4)]
USER    Estimated Inhibition Constant, Ki   =  175.29 mM (millimolar)  [Temperature = 298.15 K]
USER    
USER    (1) Final Intermolecular Energy     =   -4.62 kcal/mol
USER        vdW + Hbond + desolv Energy     =   -4.62 kcal/mol
USER        Electrostatic Energy            =   -0.00 kcal/mol
USER    (2) Final Total Internal Energy     =   +0.62 kcal/mol
USER    (3) Torsional Free Energy           =   +2.68 kcal/mol
USER    (4) Unbound System's Energy         =   -0.29 kcal/mol
USER    
USER    
USER    NEWDPF move PE_ligand.pdbqt
USER    NEWDPF about 3.037000 5.209000 3.149000
USER    NEWDPF tran0 27.953218 38.788476 27.337295
USER    NEWDPF quaternion0 -0.115615 -0.952953 0.027833 0.278819
USER    NEWDPF axisangle0 -0.120389 -0.992304 0.028983 147.620580
USER    NEWDPF quat0 -0.120389 -0.992304 0.028983 147.620580
USER    NEWDPF dihe0 155.27 -141.29 48.66 128.18 169.37 173.33 122.58 37.59 58.40 
USER  keepresnum = 1 
USER  
REMARK  9 active torsions:
REMARK  status: ('A' for Active; 'I' for Inactive)
REMARK    1  A    between atoms: C1_1  and  C2_2 
REMARK    2  A    between atoms: C1_1  and  C3_3 
REMARK    3  A    between atoms: C2_2  and  C4_4 
REMARK    4  A    between atoms: C3_3  and  C5_5 
REMARK    5  A    between atoms: C4_4  and  C6_6 
REMARK    6  A    between atoms: C5_5  and  C7_7 
REMARK    7  A    between atoms: C6_6  and  C8_8 
REMARK    8  A    between atoms: C7_7  and  C9_9 
REMARK    9  A    between atoms: C8_8  and  C10_10 
USER                              x       y       z     vdW  Elec       q    Type
USER                           _______ _______ _______ _____ _____    ______ ____
ROOT
ATOM      1  C1  MOL C   1      28.648  39.529  26.766 -0.51 -0.00    +0.000 C 
ENDROOT
BRANCH   1   2
ATOM      2  C2  MOL C   1      27.217  39.128  26.379 -0.46 -0.00    +0.000 C 
BRANCH   2   3
ATOM      3  C4  MOL C   1      26.253  39.930  27.312 -0.53 -0.00    +0.000 C 
BRANCH   3   4
ATOM      4  C6  MOL C   1      26.604  39.759  28.883 -0.34 -0.00    +0.000 C 
BRANCH   4   5
ATOM      5  C8  MOL C   1      27.742  40.597  29.420 -0.18 +0.00    -0.000 C 
BRANCH   5   6
ATOM      6  C10 MOL C   1      28.512  39.750  30.426 -0.44 +0.00    -0.005 C 
ATOM      7  C12 MOL C   1      29.172  40.468  31.564 -0.63 -0.01    +0.005 C 
ENDBRANCH   5   6
ENDBRANCH   4   5
ENDBRANCH   3   4
ENDBRANCH   2   3
ENDBRANCH   1   2
BRANCH   1   8
ATOM      8  C3  MOL C   1      29.482  38.189  26.675 -0.25 -0.00    +0.000 C 
BRANCH   8   9
ATOM      9  C5  MOL C   1      30.066  37.832  28.174 -0.30 -0.00    +0.000 C 
BRANCH   9  10
ATOM     10  C7  MOL C   1      29.496  36.532  28.855 -0.36 +0.00    -0.000 C 
BRANCH  10  11
ATOM     11  C9  MOL C   1      27.974  36.256  28.599 -0.47 +0.00    -0.005 C 
ATOM     12  C11 MOL C   1      27.751  36.311  27.047 -0.13 -0.00    +0.005 C 
ENDBRANCH  10  11
ENDBRANCH   9  10
ENDBRANCH   8   9
ENDBRANCH   1   8
TORSDOF 9
TER
ENDMDL
MODEL       46
USER    Run = 46
USER    DPF = lac1.dpf
USER  
USER    Estimated Free Energy of Binding    =   +4.47 kcal/mol  [=(1)+(2)+(3)-(4)]
USER    
USER    (1) Final Intermolecular Energy     =   -2.06 kcal/mol
USER        vdW + Hbond + desolv Energy     =   -2.06 kcal/mol
USER        Electrostatic Energy            =   +0.00 kcal/mol
USER    (2) Final Total Internal Energy     =   +3.56 kcal/mol
USER    (3) Torsional Free Energy           =   +2.68 kcal/mol
USER    (4) Unbound System's Energy         =   -0.29 kcal/mol
USER    
USER    
USER    NEWDPF move PE_ligand.pdbqt
USER    NEWDPF about 3.037000 5.209000 3.149000
USER    NEWDPF tran0 28.851377 38.025799 28.268575
USER    NEWDPF quaternion0 0.366449 -0.182209 0.592240 -0.694094
USER    NEWDPF axisangle0 0.509038 -0.253109 0.822688 -92.089847
USER    NEWDPF quat0 0.509038 -0.253109 0.822688 -92.089847
USER    NEWDPF dihe0 13.87 158.14 -163.14 87.64 127.76 101.52 -94.38 72.68 56.14 
USER  keepresnum = 1 
USER  
REMARK  9 active torsions:
REMARK  status: ('A' for Active; 'I' for Inactive)
REMARK    1  A    between atoms: C1_1  and  C2_2 
REMARK    2  A    between atoms: C1_1  and  C3_3 
REMARK    3  A    between atoms: C2_2  and  C4_4 
REMARK    4  A    between atoms: C3_3  and  C5_5 
REMARK    5  A    between atoms: C4_4  and  C6_6 
REMARK    6  A    between atoms: C5_5  and  C7_7 
REMARK    7  A    between atoms: C6_6  and  C8_8 
REMARK    8  A    between atoms: C7_7  and  C9_9 
REMARK    9  A    between atoms: C8_8  and  C10_10 
USER                              x       y       z     vdW  Elec       q    Type
USER                           _______ _______ _______ _____ _____    ______ ____
ROOT
ATOM      1  C1  MOL C   1      28.125  37.427  28.955 +0.23 -0.00    +0.000 C 
ENDROOT
BRANCH   1   2
ATOM      2  C2  MOL C   1      29.057  38.571  29.381 -0.04 -0.00    +0.000 C 
BRANCH   2   3
ATOM      3  C4  MOL C   1      28.401  39.899  28.881 -0.63 -0.00    +0.000 C 
BRANCH   3   4
ATOM      4  C6  MOL C   1      27.403  40.562  29.970 -0.18 -0.00    +0.000 C 
BRANCH   4   5
ATOM      5  C8  MOL C   1      27.830  40.483  31.418 -0.64 +0.00    -0.000 C 
BRANCH   5   6
ATOM      6  C10 MOL C   1      29.236  39.893  31.458 +0.68 +0.01    -0.005 C 
ATOM      7  C12 MOL C   1      30.352  40.744  30.930 -0.03 -0.00    +0.005 C 
ENDBRANCH   5   6
ENDBRANCH   4   5
ENDBRANCH   3   4
ENDBRANCH   2   3
ENDBRANCH   1   2
BRANCH   1   8
ATOM      8  C3  MOL C   1      29.093  36.282  28.454 -0.55 -0.00    +0.000 C 
BRANCH   8   9
ATOM      9  C5  MOL C   1      29.524  36.602  26.897 -0.48 -0.00    +0.000 C 
BRANCH   9  10
ATOM     10  C7  MOL C   1      29.864  38.101  26.559 +0.28 +0.00    -0.000 C 
BRANCH  10  11
ATOM     11  C9  MOL C   1      28.624  39.043  26.375 -0.40 +0.00    -0.005 C 
ATOM     12  C11 MOL C   1      27.349  38.129  26.378 -0.32 -0.00    +0.005 C 
ENDBRANCH  10  11
ENDBRANCH   9  10
ENDBRANCH   8   9
ENDBRANCH   1   8
TORSDOF 9
TER
ENDMDL
MODEL       47
USER    Run = 47
USER    DPF = lac1.dpf
USER  
USER    Estimated Free Energy of Binding    =   -0.40 kcal/mol  [=(1)+(2)+(3)-(4)]
USER    Estimated Inhibition Constant, Ki   =  513.08 mM (millimolar)  [Temperature = 298.15 K]
USER    
USER    (1) Final Intermolecular Energy     =   -3.47 kcal/mol
USER        vdW + Hbond + desolv Energy     =   -3.46 kcal/mol
USER        Electrostatic Energy            =   -0.00 kcal/mol
USER    (2) Final Total Internal Energy     =   +0.10 kcal/mol
USER    (3) Torsional Free Energy           =   +2.68 kcal/mol
USER    (4) Unbound System's Energy         =   -0.29 kcal/mol
USER    
USER    
USER    NEWDPF move PE_ligand.pdbqt
USER    NEWDPF about 3.037000 5.209000 3.149000
USER    NEWDPF tran0 27.435290 37.953608 28.645823
USER    NEWDPF quaternion0 0.217297 0.820311 -0.503945 0.160969
USER    NEWDPF axisangle0 0.220168 0.831150 -0.510604 161.473653
USER    NEWDPF quat0 0.220168 0.831150 -0.510604 161.473653
USER    NEWDPF dihe0 -176.69 -107.10 174.86 175.15 28.65 -9.51 155.36 49.39 69.93 
USER  keepresnum = 1 
USER  
REMARK  9 active torsions:
REMARK  status: ('A' for Active; 'I' for Inactive)
REMARK    1  A    between atoms: C1_1  and  C2_2 
REMARK    2  A    between atoms: C1_1  and  C3_3 
REMARK    3  A    between atoms: C2_2  and  C4_4 
REMARK    4  A    between atoms: C3_3  and  C5_5 
REMARK    5  A    between atoms: C4_4  and  C6_6 
REMARK    6  A    between atoms: C5_5  and  C7_7 
REMARK    7  A    between atoms: C6_6  and  C8_8 
REMARK    8  A    between atoms: C7_7  and  C9_9 
REMARK    9  A    between atoms: C8_8  and  C10_10 
USER                              x       y       z     vdW  Elec       q    Type
USER                           _______ _______ _______ _____ _____    ______ ____
ROOT
ATOM      1  C1  MOL C   1      27.332  37.671  27.520 -0.38 -0.00    +0.000 C 
ENDROOT
BRANCH   1   2
ATOM      2  C2  MOL C   1      26.266  38.338  28.401 +0.09 -0.00    +0.000 C 
BRANCH   2   3
ATOM      3  C4  MOL C   1      26.484  39.882  28.287 -0.51 -0.00    +0.000 C 
BRANCH   3   4
ATOM      4  C6  MOL C   1      27.966  40.276  27.768 -0.63 -0.00    +0.000 C 
BRANCH   4   5
ATOM      5  C8  MOL C   1      29.127  39.829  28.628 -0.59 +0.00    -0.000 C 
BRANCH   5   6
ATOM      6  C10 MOL C   1      28.573  39.446  29.996 -0.34 +0.00    -0.005 C 
ATOM      7  C12 MOL C   1      29.107  40.190  31.184 -0.50 -0.00    +0.005 C 
ENDBRANCH   5   6
ENDBRANCH   4   5
ENDBRANCH   3   4
ENDBRANCH   2   3
ENDBRANCH   1   2
BRANCH   1   8
ATOM      8  C3  MOL C   1      27.568  36.252  28.175 -0.44 -0.00    +0.000 C 
BRANCH   8   9
ATOM      9  C5  MOL C   1      29.012  36.272  28.968 -0.47 -0.00    +0.000 C 
BRANCH   9  10
ATOM     10  C7  MOL C   1      30.302  36.355  28.070 -0.56 +0.00    -0.000 C 
BRANCH  10  11
ATOM     11  C9  MOL C   1      30.041  36.642  26.550 -0.46 +0.00    -0.005 C 
ATOM     12  C11 MOL C   1      29.959  38.200  26.384 +1.30 -0.00    +0.005 C 
ENDBRANCH  10  11
ENDBRANCH   9  10
ENDBRANCH   8   9
ENDBRANCH   1   8
TORSDOF 9
TER
ENDMDL
MODEL       48
USER    Run = 48
USER    DPF = lac1.dpf
USER  
USER    Estimated Free Energy of Binding    =   -0.70 kcal/mol  [=(1)+(2)+(3)-(4)]
USER    Estimated Inhibition Constant, Ki   =  308.83 mM (millimolar)  [Temperature = 298.15 K]
USER    
USER    (1) Final Intermolecular Energy     =   -3.61 kcal/mol
USER        vdW + Hbond + desolv Energy     =   -3.61 kcal/mol
USER        Electrostatic Energy            =   -0.00 kcal/mol
USER    (2) Final Total Internal Energy     =   -0.06 kcal/mol
USER    (3) Torsional Free Energy           =   +2.68 kcal/mol
USER    (4) Unbound System's Energy         =   -0.29 kcal/mol
USER    
USER    
USER    NEWDPF move PE_ligand.pdbqt
USER    NEWDPF about 3.037000 5.209000 3.149000
USER    NEWDPF tran0 26.772742 37.485735 26.527948
USER    NEWDPF quaternion0 -0.000418 0.270551 0.660878 -0.700030
USER    NEWDPF axisangle0 -0.000585 0.378863 0.925453 -91.141120
USER    NEWDPF quat0 -0.000585 0.378863 0.925453 -91.141120
USER    NEWDPF dihe0 -170.69 -155.38 23.17 -161.61 34.00 178.38 -107.79 103.79 157.60 
USER  keepresnum = 1 
USER  
REMARK  9 active torsions:
REMARK  status: ('A' for Active; 'I' for Inactive)
REMARK    1  A    between atoms: C1_1  and  C2_2 
REMARK    2  A    between atoms: C1_1  and  C3_3 
REMARK    3  A    between atoms: C2_2  and  C4_4 
REMARK    4  A    between atoms: C3_3  and  C5_5 
REMARK    5  A    between atoms: C4_4  and  C6_6 
REMARK    6  A    between atoms: C5_5  and  C7_7 
REMARK    7  A    between atoms: C6_6  and  C8_8 
REMARK    8  A    between atoms: C7_7  and  C9_9 
REMARK    9  A    between atoms: C8_8  and  C10_10 
USER                              x       y       z     vdW  Elec       q    Type
USER                           _______ _______ _______ _____ _____    ______ ____
ROOT
ATOM      1  C1  MOL C   1      26.250  37.768  27.530 +0.27 -0.00    +0.000 C 
ENDROOT
BRANCH   1   2
ATOM      2  C2  MOL C   1      26.759  38.739  26.456 -0.37 -0.00    +0.000 C 
BRANCH   2   3
ATOM      3  C4  MOL C   1      26.375  40.179  26.928 -0.53 -0.00    +0.000 C 
BRANCH   3   4
ATOM      4  C6  MOL C   1      27.344  40.742  28.097 -0.51 -0.00    +0.000 C 
BRANCH   4   5
ATOM      5  C8  MOL C   1      27.473  39.890  29.340 -0.54 +0.00    -0.000 C 
BRANCH   5   6
ATOM      6  C10 MOL C   1      28.160  40.729  30.412 -0.44 +0.00    -0.005 C 
ATOM      7  C12 MOL C   1      29.513  40.278  30.872 -0.53 -0.00    +0.005 C 
ENDBRANCH   5   6
ENDBRANCH   4   5
ENDBRANCH   3   4
ENDBRANCH   2   3
ENDBRANCH   1   2
BRANCH   1   8
ATOM      8  C3  MOL C   1      27.546  37.029  28.053 -0.39 -0.00    +0.000 C 
BRANCH   8   9
ATOM      9  C5  MOL C   1      28.376  36.442  26.757 -0.39 -0.00    +0.000 C 
BRANCH   9  10
ATOM     10  C7  MOL C   1      29.835  36.998  26.550 -0.45 +0.00    -0.000 C 
BRANCH  10  11
ATOM     11  C9  MOL C   1      30.609  37.347  27.868 +0.22 +0.00    -0.005 C 
ATOM     12  C11 MOL C   1      30.235  36.251  28.926 +0.05 -0.00    +0.005 C 
ENDBRANCH  10  11
ENDBRANCH   9  10
ENDBRANCH   8   9
ENDBRANCH   1   8
TORSDOF 9
TER
ENDMDL
MODEL       49
USER    Run = 49
USER    DPF = lac1.dpf
USER  
USER    Estimated Free Energy of Binding    =   -2.17 kcal/mol  [=(1)+(2)+(3)-(4)]
USER    Estimated Inhibition Constant, Ki   =   25.84 mM (millimolar)  [Temperature = 298.15 K]
USER    
USER    (1) Final Intermolecular Energy     =   -5.92 kcal/mol
USER        vdW + Hbond + desolv Energy     =   -5.92 kcal/mol
USER        Electrostatic Energy            =   -0.00 kcal/mol
USER    (2) Final Total Internal Energy     =   +0.79 kcal/mol
USER    (3) Torsional Free Energy           =   +2.68 kcal/mol
USER    (4) Unbound System's Energy         =   -0.29 kcal/mol
USER    
USER    
USER    NEWDPF move PE_ligand.pdbqt
USER    NEWDPF about 3.037000 5.209000 3.149000
USER    NEWDPF tran0 27.484320 39.416061 27.450957
USER    NEWDPF quaternion0 0.099288 -0.958130 0.235367 0.129351
USER    NEWDPF axisangle0 0.100129 -0.966247 0.237361 165.135868
USER    NEWDPF quat0 0.100129 -0.966247 0.237361 165.135868
USER    NEWDPF dihe0 173.09 142.77 73.13 100.32 6.82 -38.77 -178.67 177.50 9.36 
USER  keepresnum = 1 
USER  
REMARK  9 active torsions:
REMARK  status: ('A' for Active; 'I' for Inactive)
REMARK    1  A    between atoms: C1_1  and  C2_2 
REMARK    2  A    between atoms: C1_1  and  C3_3 
REMARK    3  A    between atoms: C2_2  and  C4_4 
REMARK    4  A    between atoms: C3_3  and  C5_5 
REMARK    5  A    between atoms: C4_4  and  C6_6 
REMARK    6  A    between atoms: C5_5  and  C7_7 
REMARK    7  A    between atoms: C6_6  and  C8_8 
REMARK    8  A    between atoms: C7_7  and  C9_9 
REMARK    9  A    between atoms: C8_8  and  C10_10 
USER                              x       y       z     vdW  Elec       q    Type
USER                           _______ _______ _______ _____ _____    ______ ____
ROOT
ATOM      1  C1  MOL C   1      27.698  39.883  26.405 -0.55 -0.00    +0.000 C 
ENDROOT
BRANCH   1   2
ATOM      2  C2  MOL C   1      26.454  39.082  26.816 -0.43 -0.00    +0.000 C 
BRANCH   2   3
ATOM      3  C4  MOL C   1      26.254  39.311  28.350 -0.46 -0.00    +0.000 C 
BRANCH   3   4
ATOM      4  C6  MOL C   1      27.280  40.400  28.967 -0.47 -0.00    +0.000 C 
BRANCH   4   5
ATOM      5  C8  MOL C   1      28.661  39.903  29.329 -0.63 +0.00    -0.000 C 
BRANCH   5   6
ATOM      6  C10 MOL C   1      28.845  40.085  30.832 -0.57 +0.00    -0.005 C 
ATOM      7  C12 MOL C   1      30.109  40.746  31.293 -0.54 -0.00    +0.005 C 
ENDBRANCH   5   6
ENDBRANCH   4   5
ENDBRANCH   3   4
ENDBRANCH   2   3
ENDBRANCH   1   2
BRANCH   1   8
ATOM      8  C3  MOL C   1      28.898  38.864  26.540 -0.34 -0.00    +0.000 C 
BRANCH   8   9
ATOM      9  C5  MOL C   1      28.300  37.332  26.448 -0.39 -0.00    +0.000 C 
BRANCH   9  10
ATOM     10  C7  MOL C   1      28.065  36.589  27.816 -0.47 +0.00    -0.000 C 
BRANCH  10  11
ATOM     11  C9  MOL C   1      29.362  36.284  28.642 -0.54 +0.00    -0.005 C 
ATOM     12  C11 MOL C   1      30.557  36.252  27.627 -0.53 -0.00    +0.005 C 
ENDBRANCH  10  11
ENDBRANCH   9  10
ENDBRANCH   8   9
ENDBRANCH   1   8
TORSDOF 9
TER
ENDMDL
MODEL       50
USER    Run = 50
USER    DPF = lac1.dpf
USER  
USER    Estimated Free Energy of Binding    =   -1.75 kcal/mol  [=(1)+(2)+(3)-(4)]
USER    Estimated Inhibition Constant, Ki   =   51.77 mM (millimolar)  [Temperature = 298.15 K]
USER    
USER    (1) Final Intermolecular Energy     =   -5.37 kcal/mol
USER        vdW + Hbond + desolv Energy     =   -5.37 kcal/mol
USER        Electrostatic Energy            =   +0.00 kcal/mol
USER    (2) Final Total Internal Energy     =   +0.64 kcal/mol
USER    (3) Torsional Free Energy           =   +2.68 kcal/mol
USER    (4) Unbound System's Energy         =   -0.29 kcal/mol
USER    
USER    
USER    NEWDPF move PE_ligand.pdbqt
USER    NEWDPF about 3.037000 5.209000 3.149000
USER    NEWDPF tran0 27.385609 39.089885 27.467694
USER    NEWDPF quaternion0 0.632257 -0.094458 -0.687134 0.345218
USER    NEWDPF axisangle0 0.673673 -0.100646 -0.732144 139.609745
USER    NEWDPF quat0 0.673673 -0.100646 -0.732144 139.609745
USER    NEWDPF dihe0 -17.36 168.71 -73.05 89.73 -97.34 -30.86 -147.86 128.89 12.53 
USER  keepresnum = 1 
USER  
REMARK  9 active torsions:
REMARK  status: ('A' for Active; 'I' for Inactive)
REMARK    1  A    between atoms: C1_1  and  C2_2 
REMARK    2  A    between atoms: C1_1  and  C3_3 
REMARK    3  A    between atoms: C2_2  and  C4_4 
REMARK    4  A    between atoms: C3_3  and  C5_5 
REMARK    5  A    between atoms: C4_4  and  C6_6 
REMARK    6  A    between atoms: C5_5  and  C7_7 
REMARK    7  A    between atoms: C6_6  and  C8_8 
REMARK    8  A    between atoms: C7_7  and  C9_9 
REMARK    9  A    between atoms: C8_8  and  C10_10 
USER                              x       y       z     vdW  Elec       q    Type
USER                           _______ _______ _______ _____ _____    ______ ____
ROOT
ATOM      1  C1  MOL C   1      26.251  38.829  27.439 -0.43 -0.00    +0.000 C 
ENDROOT
BRANCH   1   2
ATOM      2  C2  MOL C   1      27.037  39.620  26.384 -0.52 -0.00    +0.000 C 
BRANCH   2   3
ATOM      3  C4  MOL C   1      28.492  39.045  26.379 -0.48 -0.00    +0.000 C 
BRANCH   3   4
ATOM      4  C6  MOL C   1      28.541  37.444  26.611 -0.42 -0.00    +0.000 C 
BRANCH   4   5
ATOM      5  C8  MOL C   1      29.891  36.778  26.465 -0.46 +0.00    -0.000 C 
BRANCH   5   6
ATOM      6  C10 MOL C   1      30.499  36.646  27.856 -0.46 +0.00    -0.005 C 
ATOM      7  C12 MOL C   1      29.569  36.302  28.981 -0.37 -0.00    +0.005 C 
ENDBRANCH   5   6
ENDBRANCH   4   5
ENDBRANCH   3   4
ENDBRANCH   2   3
ENDBRANCH   1   2
BRANCH   1   8
ATOM      8  C3  MOL C   1      26.333  39.710  28.749 -0.30 -0.00    +0.000 C 
BRANCH   8   9
ATOM      9  C5  MOL C   1      27.698  40.630  28.679 -0.22 -0.00    +0.000 C 
BRANCH   9  10
ATOM     10  C7  MOL C   1      28.999  40.000  29.302 -0.60 +0.00    -0.000 C 
BRANCH  10  11
ATOM     11  C9  MOL C   1      29.060  40.006  30.869 -0.47 +0.00    -0.005 C 
ATOM     12  C11 MOL C   1      27.711  40.622  31.379 -0.63 -0.00    +0.005 C 
ENDBRANCH  10  11
ENDBRANCH   9  10
ENDBRANCH   8   9
ENDBRANCH   1   8
TORSDOF 9
TER
ENDMDL
MODEL       51
USER    Run = 51
USER    DPF = lac1.dpf
USER  
USER    Estimated Free Energy of Binding    =   -0.17 kcal/mol  [=(1)+(2)+(3)-(4)]
USER    Estimated Inhibition Constant, Ki   =  744.78 mM (millimolar)  [Temperature = 298.15 K]
USER    
USER    (1) Final Intermolecular Energy     =   -2.98 kcal/mol
USER        vdW + Hbond + desolv Energy     =   -2.97 kcal/mol
USER        Electrostatic Energy            =   -0.00 kcal/mol
USER    (2) Final Total Internal Energy     =   -0.17 kcal/mol
USER    (3) Torsional Free Energy           =   +2.68 kcal/mol
USER    (4) Unbound System's Energy         =   -0.29 kcal/mol
USER    
USER    
USER    NEWDPF move PE_ligand.pdbqt
USER    NEWDPF about 3.037000 5.209000 3.149000
USER    NEWDPF tran0 28.720954 38.837560 26.729002
USER    NEWDPF quaternion0 -0.485758 -0.453595 -0.511902 0.544286
USER    NEWDPF axisangle0 -0.579042 -0.540702 -0.610207 114.048284
USER    NEWDPF quat0 -0.579042 -0.540702 -0.610207 114.048284
USER    NEWDPF dihe0 -180.00 174.47 168.17 78.90 172.93 87.71 -176.99 26.21 40.47 
USER  keepresnum = 1 
USER  
REMARK  9 active torsions:
REMARK  status: ('A' for Active; 'I' for Inactive)
REMARK    1  A    between atoms: C1_1  and  C2_2 
REMARK    2  A    between atoms: C1_1  and  C3_3 
REMARK    3  A    between atoms: C2_2  and  C4_4 
REMARK    4  A    between atoms: C3_3  and  C5_5 
REMARK    5  A    between atoms: C4_4  and  C6_6 
REMARK    6  A    between atoms: C5_5  and  C7_7 
REMARK    7  A    between atoms: C6_6  and  C8_8 
REMARK    8  A    between atoms: C7_7  and  C9_9 
REMARK    9  A    between atoms: C8_8  and  C10_10 
USER                              x       y       z     vdW  Elec       q    Type
USER                           _______ _______ _______ _____ _____    ______ ____
ROOT
ATOM      1  C1  MOL C   1      29.364  38.683  27.688 -0.54 -0.00    +0.000 C 
ENDROOT
BRANCH   1   2
ATOM      2  C2  MOL C   1      29.159  39.998  26.922 +0.15 -0.00    +0.000 C 
BRANCH   2   3
ATOM      3  C4  MOL C   1      27.624  40.299  26.941 -0.52 -0.00    +0.000 C 
BRANCH   3   4
ATOM      4  C6  MOL C   1      26.792  39.288  27.892 -0.51 -0.00    +0.000 C 
BRANCH   4   5
ATOM      5  C8  MOL C   1      26.749  39.623  29.365 +0.09 +0.00    -0.000 C 
BRANCH   5   6
ATOM      6  C10 MOL C   1      27.948  40.511  29.678 -0.27 +0.00    -0.005 C 
ATOM      7  C12 MOL C   1      28.877  40.052  30.761 -0.56 -0.00    +0.005 C 
ENDBRANCH   5   6
ENDBRANCH   4   5
ENDBRANCH   3   4
ENDBRANCH   2   3
ENDBRANCH   1   2
BRANCH   1   8
ATOM      8  C3  MOL C   1      30.100  37.730  26.665 +0.10 -0.00    +0.000 C 
BRANCH   8   9
ATOM      9  C5  MOL C   1      29.282  36.301  26.596 -0.46 -0.00    +0.000 C 
BRANCH   9  10
ATOM     10  C7  MOL C   1      27.740  36.362  26.904 -0.03 +0.00    -0.000 C 
BRANCH  10  11
ATOM     11  C9  MOL C   1      27.357  36.250  28.421 -0.29 +0.00    -0.005 C 
ATOM     12  C11 MOL C   1      28.695  36.309  29.238 -0.13 -0.00    +0.005 C 
ENDBRANCH  10  11
ENDBRANCH   9  10
ENDBRANCH   8   9
ENDBRANCH   1   8
TORSDOF 9
TER
ENDMDL
MODEL       52
USER    Run = 52
USER    DPF = lac1.dpf
USER  
USER    Estimated Free Energy of Binding    =   -0.82 kcal/mol  [=(1)+(2)+(3)-(4)]
USER    Estimated Inhibition Constant, Ki   =  249.21 mM (millimolar)  [Temperature = 298.15 K]
USER    
USER    (1) Final Intermolecular Energy     =   -4.09 kcal/mol
USER        vdW + Hbond + desolv Energy     =   -4.09 kcal/mol
USER        Electrostatic Energy            =   -0.00 kcal/mol
USER    (2) Final Total Internal Energy     =   +0.29 kcal/mol
USER    (3) Torsional Free Energy           =   +2.68 kcal/mol
USER    (4) Unbound System's Energy         =   -0.29 kcal/mol
USER    
USER    
USER    NEWDPF move PE_ligand.pdbqt
USER    NEWDPF about 3.037000 5.209000 3.149000
USER    NEWDPF tran0 28.848194 39.181096 27.944910
USER    NEWDPF quaternion0 0.388886 0.768807 0.019503 -0.507270
USER    NEWDPF axisangle0 0.451255 0.892108 0.022631 -119.035679
USER    NEWDPF quat0 0.451255 0.892108 0.022631 -119.035679
USER    NEWDPF dihe0 104.10 98.81 126.42 149.46 -163.64 -176.85 120.07 62.01 38.22 
USER  keepresnum = 1 
USER  
REMARK  9 active torsions:
REMARK  status: ('A' for Active; 'I' for Inactive)
REMARK    1  A    between atoms: C1_1  and  C2_2 
REMARK    2  A    between atoms: C1_1  and  C3_3 
REMARK    3  A    between atoms: C2_2  and  C4_4 
REMARK    4  A    between atoms: C3_3  and  C5_5 
REMARK    5  A    between atoms: C4_4  and  C6_6 
REMARK    6  A    between atoms: C5_5  and  C7_7 
REMARK    7  A    between atoms: C6_6  and  C8_8 
REMARK    8  A    between atoms: C7_7  and  C9_9 
REMARK    9  A    between atoms: C8_8  and  C10_10 
USER                              x       y       z     vdW  Elec       q    Type
USER                           _______ _______ _______ _____ _____    ______ ____
ROOT
ATOM      1  C1  MOL C   1      29.979  39.448  28.033 -0.26 -0.00    +0.000 C 
ENDROOT
BRANCH   1   2
ATOM      2  C2  MOL C   1      29.019  39.876  26.914 -0.18 -0.00    +0.000 C 
BRANCH   2   3
ATOM      3  C4  MOL C   1      27.843  40.650  27.596 -0.49 -0.00    +0.000 C 
BRANCH   3   4
ATOM      4  C6  MOL C   1      27.111  39.793  28.758 -0.55 -0.00    +0.000 C 
BRANCH   4   5
ATOM      5  C8  MOL C   1      27.382  40.215  30.185 -0.32 +0.00    -0.000 C 
BRANCH   5   6
ATOM      6  C10 MOL C   1      28.864  39.992  30.464 -0.60 +0.00    -0.005 C 
ATOM      7  C12 MOL C   1      29.466  40.747  31.611 -0.68 -0.00    +0.005 C 
ENDBRANCH   5   6
ENDBRANCH   4   5
ENDBRANCH   3   4
ENDBRANCH   2   3
ENDBRANCH   1   2
BRANCH   1   8
ATOM      8  C3  MOL C   1      30.040  37.872  27.932 -0.40 -0.00    +0.000 C 
BRANCH   8   9
ATOM      9  C5  MOL C   1      28.910  37.236  28.949 -0.28 -0.00    +0.000 C 
BRANCH   9  10
ATOM     10  C7  MOL C   1      27.848  36.271  28.301 -0.49 +0.00    -0.000 C 
BRANCH  10  11
ATOM     11  C9  MOL C   1      27.749  36.342  26.737 +0.05 +0.00    -0.005 C 
ATOM     12  C11 MOL C   1      27.160  37.751  26.377 +0.13 -0.00    +0.005 C 
ENDBRANCH  10  11
ENDBRANCH   9  10
ENDBRANCH   8   9
ENDBRANCH   1   8
TORSDOF 9
TER
ENDMDL
MODEL       53
USER    Run = 53
USER    DPF = lac1.dpf
USER  
USER    Estimated Free Energy of Binding    =   -1.46 kcal/mol  [=(1)+(2)+(3)-(4)]
USER    Estimated Inhibition Constant, Ki   =   85.71 mM (millimolar)  [Temperature = 298.15 K]
USER    
USER    (1) Final Intermolecular Energy     =   -4.11 kcal/mol
USER        vdW + Hbond + desolv Energy     =   -4.11 kcal/mol
USER        Electrostatic Energy            =   -0.00 kcal/mol
USER    (2) Final Total Internal Energy     =   -0.31 kcal/mol
USER    (3) Torsional Free Energy           =   +2.68 kcal/mol
USER    (4) Unbound System's Energy         =   -0.29 kcal/mol
USER    
USER    
USER    NEWDPF move PE_ligand.pdbqt
USER    NEWDPF about 3.037000 5.209000 3.149000
USER    NEWDPF tran0 27.671686 37.864458 28.208416
USER    NEWDPF quaternion0 -0.147777 -0.557154 0.787945 -0.216526
USER    NEWDPF axisangle0 -0.151368 -0.570693 0.807092 -154.989884
USER    NEWDPF quat0 -0.151368 -0.570693 0.807092 -154.989884
USER    NEWDPF dihe0 75.24 -159.19 -104.68 -126.44 130.60 -0.90 30.06 51.25 35.88 
USER  keepresnum = 1 
USER  
REMARK  9 active torsions:
REMARK  status: ('A' for Active; 'I' for Inactive)
REMARK    1  A    between atoms: C1_1  and  C2_2 
REMARK    2  A    between atoms: C1_1  and  C3_3 
REMARK    3  A    between atoms: C2_2  and  C4_4 
REMARK    4  A    between atoms: C3_3  and  C5_5 
REMARK    5  A    between atoms: C4_4  and  C6_6 
REMARK    6  A    between atoms: C5_5  and  C7_7 
REMARK    7  A    between atoms: C6_6  and  C8_8 
REMARK    8  A    between atoms: C7_7  and  C9_9 
REMARK    9  A    between atoms: C8_8  and  C10_10 
USER                              x       y       z     vdW  Elec       q    Type
USER                           _______ _______ _______ _____ _____    ______ ____
ROOT
ATOM      1  C1  MOL C   1      27.251  36.941  27.636 -0.13 -0.00    +0.000 C 
ENDROOT
BRANCH   1   2
ATOM      2  C2  MOL C   1      26.441  38.113  28.210 -0.23 -0.00    +0.000 C 
BRANCH   2   3
ATOM      3  C4  MOL C   1      27.041  39.421  27.598 -0.53 -0.00    +0.000 C 
BRANCH   3   4
ATOM      4  C6  MOL C   1      27.008  40.673  28.623 -0.29 -0.00    +0.000 C 
BRANCH   4   5
ATOM      5  C8  MOL C   1      27.367  40.381  30.062 -0.34 +0.00    -0.000 C 
BRANCH   5   6
ATOM      6  C10 MOL C   1      28.826  39.939  30.099 -0.62 +0.00    -0.005 C 
ATOM      7  C12 MOL C   1      29.718  40.604  31.104 -0.56 -0.00    +0.005 C 
ENDBRANCH   5   6
ENDBRANCH   4   5
ENDBRANCH   3   4
ENDBRANCH   2   3
ENDBRANCH   1   2
BRANCH   1   8
ATOM      8  C3  MOL C   1      27.911  36.250  28.896 -0.17 -0.00    +0.000 C 
BRANCH   8   9
ATOM      9  C5  MOL C   1      29.501  36.676  28.955 -0.22 -0.00    +0.000 C 
BRANCH   9  10
ATOM     10  C7  MOL C   1      30.383  36.261  27.719 -0.56 +0.00    -0.000 C 
BRANCH  10  11
ATOM     11  C9  MOL C   1      30.048  37.005  26.380 -0.39 +0.00    -0.005 C 
ATOM     12  C11 MOL C   1      29.615  38.464  26.760 -0.07 -0.00    +0.005 C 
ENDBRANCH  10  11
ENDBRANCH   9  10
ENDBRANCH   8   9
ENDBRANCH   1   8
TORSDOF 9
TER
ENDMDL
MODEL       54
USER    Run = 54
USER    DPF = lac1.dpf
USER  
USER    Estimated Free Energy of Binding    =   -2.88 kcal/mol  [=(1)+(2)+(3)-(4)]
USER    Estimated Inhibition Constant, Ki   =    7.73 mM (millimolar)  [Temperature = 298.15 K]
USER    
USER    (1) Final Intermolecular Energy     =   -5.14 kcal/mol
USER        vdW + Hbond + desolv Energy     =   -5.14 kcal/mol
USER        Electrostatic Energy            =   +0.00 kcal/mol
USER    (2) Final Total Internal Energy     =   -0.72 kcal/mol
USER    (3) Torsional Free Energy           =   +2.68 kcal/mol
USER    (4) Unbound System's Energy         =   -0.29 kcal/mol
USER    
USER    
USER    NEWDPF move PE_ligand.pdbqt
USER    NEWDPF about 3.037000 5.209000 3.149000
USER    NEWDPF tran0 27.822683 38.940443 27.176968
USER    NEWDPF quaternion0 -0.444495 -0.320546 0.665901 -0.506211
USER    NEWDPF axisangle0 -0.515410 -0.371687 0.772141 -119.176402
USER    NEWDPF quat0 -0.515410 -0.371687 0.772141 -119.176402
USER    NEWDPF dihe0 147.81 143.03 -54.94 84.65 16.17 163.18 100.51 14.93 4.11 
USER  keepresnum = 1 
USER  
REMARK  9 active torsions:
REMARK  status: ('A' for Active; 'I' for Inactive)
REMARK    1  A    between atoms: C1_1  and  C2_2 
REMARK    2  A    between atoms: C1_1  and  C3_3 
REMARK    3  A    between atoms: C2_2  and  C4_4 
REMARK    4  A    between atoms: C3_3  and  C5_5 
REMARK    5  A    between atoms: C4_4  and  C6_6 
REMARK    6  A    between atoms: C5_5  and  C7_7 
REMARK    7  A    between atoms: C6_6  and  C8_8 
REMARK    8  A    between atoms: C7_7  and  C9_9 
REMARK    9  A    between atoms: C8_8  and  C10_10 
USER                              x       y       z     vdW  Elec       q    Type
USER                           _______ _______ _______ _____ _____    ______ ____
ROOT
ATOM      1  C1  MOL C   1      26.796  38.606  26.740 -0.37 -0.00    +0.000 C 
ENDROOT
BRANCH   1   2
ATOM      2  C2  MOL C   1      27.307  40.047  26.885 -0.58 -0.00    +0.000 C 
BRANCH   2   3
ATOM      3  C4  MOL C   1      28.868  39.972  26.926 -0.42 -0.00    +0.000 C 
BRANCH   3   4
ATOM      4  C6  MOL C   1      29.440  39.426  28.338 -0.58 -0.00    +0.000 C 
BRANCH   4   5
ATOM      5  C8  MOL C   1      29.361  40.374  29.513 -0.09 +0.00    -0.000 C 
BRANCH   5   6
ATOM      6  C10 MOL C   1      28.390  39.781  30.528 -0.39 +0.00    -0.005 C 
ATOM      7  C12 MOL C   1      27.737  40.729  31.488 -0.70 -0.00    +0.005 C 
ENDBRANCH   5   6
ENDBRANCH   4   5
ENDBRANCH   3   4
ENDBRANCH   2   3
ENDBRANCH   1   2
BRANCH   1   8
ATOM      8  C3  MOL C   1      26.694  38.063  28.221 -0.24 -0.00    +0.000 C 
BRANCH   8   9
ATOM      9  C5  MOL C   1      27.214  36.500  28.244 -0.27 -0.00    +0.000 C 
BRANCH   9  10
ATOM     10  C7  MOL C   1      28.656  36.250  28.826 -0.52 +0.00    -0.000 C 
BRANCH  10  11
ATOM     11  C9  MOL C   1      29.835  36.526  27.829 -0.54 +0.00    -0.005 C 
ATOM     12  C11 MOL C   1      29.252  36.392  26.379 -0.45 -0.00    +0.005 C 
ENDBRANCH  10  11
ENDBRANCH   9  10
ENDBRANCH   8   9
ENDBRANCH   1   8
TORSDOF 9
TER
ENDMDL
MODEL       55
USER    Run = 55
USER    DPF = lac1.dpf
USER  
USER    Estimated Free Energy of Binding    =   -0.86 kcal/mol  [=(1)+(2)+(3)-(4)]
USER    Estimated Inhibition Constant, Ki   =  232.87 mM (millimolar)  [Temperature = 298.15 K]
USER    
USER    (1) Final Intermolecular Energy     =   -3.34 kcal/mol
USER        vdW + Hbond + desolv Energy     =   -3.34 kcal/mol
USER        Electrostatic Energy            =   +0.00 kcal/mol
USER    (2) Final Total Internal Energy     =   -0.50 kcal/mol
USER    (3) Torsional Free Energy           =   +2.68 kcal/mol
USER    (4) Unbound System's Energy         =   -0.29 kcal/mol
USER    
USER    
USER    NEWDPF move PE_ligand.pdbqt
USER    NEWDPF about 3.037000 5.209000 3.149000
USER    NEWDPF tran0 28.641292 38.358830 27.971266
USER    NEWDPF quaternion0 0.622226 0.013418 -0.026258 -0.782282
USER    NEWDPF axisangle0 0.998879 0.021540 -0.042152 -77.059960
USER    NEWDPF quat0 0.998879 0.021540 -0.042152 -77.059960
USER    NEWDPF dihe0 -125.64 77.14 68.73 -102.08 -177.82 -35.28 178.11 104.94 50.92 
USER  keepresnum = 1 
USER  
REMARK  9 active torsions:
REMARK  status: ('A' for Active; 'I' for Inactive)
REMARK    1  A    between atoms: C1_1  and  C2_2 
REMARK    2  A    between atoms: C1_1  and  C3_3 
REMARK    3  A    between atoms: C2_2  and  C4_4 
REMARK    4  A    between atoms: C3_3  and  C5_5 
REMARK    5  A    between atoms: C4_4  and  C6_6 
REMARK    6  A    between atoms: C5_5  and  C7_7 
REMARK    7  A    between atoms: C6_6  and  C8_8 
REMARK    8  A    between atoms: C7_7  and  C9_9 
REMARK    9  A    between atoms: C8_8  and  C10_10 
USER                              x       y       z     vdW  Elec       q    Type
USER                           _______ _______ _______ _____ _____    ______ ____
ROOT
ATOM      1  C1  MOL C   1      28.574  37.819  29.001 -0.25 -0.00    +0.000 C 
ENDROOT
BRANCH   1   2
ATOM      2  C2  MOL C   1      29.830  37.990  28.135 -0.44 -0.00    +0.000 C 
BRANCH   2   3
ATOM      3  C4  MOL C   1      30.217  39.505  28.193 +0.01 -0.00    +0.000 C 
BRANCH   3   4
ATOM      4  C6  MOL C   1      29.255  40.367  29.167 -0.06 -0.00    +0.000 C 
BRANCH   4   5
ATOM      5  C8  MOL C   1      29.711  40.533  30.599 -0.29 +0.00    -0.000 C 
BRANCH   5   6
ATOM      6  C10 MOL C   1      28.617  39.976  31.504 -0.28 +0.00    -0.005 C 
ATOM      7  C12 MOL C   1      27.336  40.750  31.587 -0.45 -0.00    +0.005 C 
ENDBRANCH   5   6
ENDBRANCH   4   5
ENDBRANCH   3   4
ENDBRANCH   2   3
ENDBRANCH   1   2
BRANCH   1   8
ATOM      8  C3  MOL C   1      27.596  36.938  28.125 -0.40 -0.00    +0.000 C 
BRANCH   8   9
ATOM      9  C5  MOL C   1      27.490  37.607  26.624 -0.19 -0.00    +0.000 C 
BRANCH   9  10
ATOM     10  C7  MOL C   1      26.283  38.588  26.378 -0.16 +0.00    -0.000 C 
BRANCH  10  11
ATOM     11  C9  MOL C   1      26.588  40.102  26.649 -0.53 +0.00    -0.005 C 
ATOM     12  C11 MOL C   1      26.264  40.374  28.159 -0.30 -0.00    +0.005 C 
ENDBRANCH  10  11
ENDBRANCH   9  10
ENDBRANCH   8   9
ENDBRANCH   1   8
TORSDOF 9
TER
ENDMDL
MODEL       56
USER    Run = 56
USER    DPF = lac1.dpf
USER  
USER    Estimated Free Energy of Binding    =   +1.16 kcal/mol  [=(1)+(2)+(3)-(4)]
USER    
USER    (1) Final Intermolecular Energy     =   -3.07 kcal/mol
USER        vdW + Hbond + desolv Energy     =   -3.07 kcal/mol
USER        Electrostatic Energy            =   -0.00 kcal/mol
USER    (2) Final Total Internal Energy     =   +1.26 kcal/mol
USER    (3) Torsional Free Energy           =   +2.68 kcal/mol
USER    (4) Unbound System's Energy         =   -0.29 kcal/mol
USER    
USER    
USER    NEWDPF move PE_ligand.pdbqt
USER    NEWDPF about 3.037000 5.209000 3.149000
USER    NEWDPF tran0 26.769134 37.797497 26.652071
USER    NEWDPF quaternion0 0.099145 -0.011908 0.516685 0.850333
USER    NEWDPF axisangle0 0.188400 -0.022629 0.981832 63.504274
USER    NEWDPF quat0 0.188400 -0.022629 0.981832 63.504274
USER    NEWDPF dihe0 0.85 -23.83 -118.30 -157.84 22.96 -14.68 118.21 -38.15 -159.18 
USER  keepresnum = 1 
USER  
REMARK  9 active torsions:
REMARK  status: ('A' for Active; 'I' for Inactive)
REMARK    1  A    between atoms: C1_1  and  C2_2 
REMARK    2  A    between atoms: C1_1  and  C3_3 
REMARK    3  A    between atoms: C2_2  and  C4_4 
REMARK    4  A    between atoms: C3_3  and  C5_5 
REMARK    5  A    between atoms: C4_4  and  C6_6 
REMARK    6  A    between atoms: C5_5  and  C7_7 
REMARK    7  A    between atoms: C6_6  and  C8_8 
REMARK    8  A    between atoms: C7_7  and  C9_9 
REMARK    9  A    between atoms: C8_8  and  C10_10 
USER                              x       y       z     vdW  Elec       q    Type
USER                           _______ _______ _______ _____ _____    ______ ____
ROOT
ATOM      1  C1  MOL C   1      27.580  38.404  27.228 -0.44 -0.00    +0.000 C 
ENDROOT
BRANCH   1   2
ATOM      2  C2  MOL C   1      27.496  36.876  27.098 +0.05 -0.00    +0.000 C 
BRANCH   2   3
ATOM      3  C4  MOL C   1      27.875  36.281  28.494 -0.46 -0.00    +0.000 C 
BRANCH   3   4
ATOM      4  C6  MOL C   1      29.337  36.749  29.006 -0.19 -0.00    +0.000 C 
BRANCH   4   5
ATOM      5  C8  MOL C   1      30.525  36.253  28.213 -0.55 +0.00    -0.000 C 
BRANCH   5   6
ATOM      6  C10 MOL C   1      30.267  36.564  26.743 -0.43 +0.00    -0.005 C 
ATOM      7  C12 MOL C   1      29.997  37.994  26.382 +0.63 -0.00    +0.005 C 
ENDBRANCH   5   6
ENDBRANCH   4   5
ENDBRANCH   3   4
ENDBRANCH   2   3
ENDBRANCH   1   2
BRANCH   1   8
ATOM      8  C3  MOL C   1      26.270  38.815  28.012 -0.44 -0.00    +0.000 C 
BRANCH   8   9
ATOM      9  C5  MOL C   1      26.427  40.376  28.515 +0.00 -0.00    +0.000 C 
BRANCH   9  10
ATOM     10  C7  MOL C   1      27.400  40.627  29.727 -0.12 +0.00    -0.000 C 
BRANCH  10  11
ATOM     11  C9  MOL C   1      28.684  39.727  29.750 -0.61 +0.00    -0.005 C 
ATOM     12  C11 MOL C   1      29.632  40.307  30.857 -0.51 -0.00    +0.005 C 
ENDBRANCH  10  11
ENDBRANCH   9  10
ENDBRANCH   8   9
ENDBRANCH   1   8
TORSDOF 9
TER
ENDMDL
MODEL       57
USER    Run = 57
USER    DPF = lac1.dpf
USER  
USER    Estimated Free Energy of Binding    =   +1.50 kcal/mol  [=(1)+(2)+(3)-(4)]
USER    
USER    (1) Final Intermolecular Energy     =   -1.79 kcal/mol
USER        vdW + Hbond + desolv Energy     =   -1.79 kcal/mol
USER        Electrostatic Energy            =   +0.00 kcal/mol
USER    (2) Final Total Internal Energy     =   +0.32 kcal/mol
USER    (3) Torsional Free Energy           =   +2.68 kcal/mol
USER    (4) Unbound System's Energy         =   -0.29 kcal/mol
USER    
USER    
USER    NEWDPF move PE_ligand.pdbqt
USER    NEWDPF about 3.037000 5.209000 3.149000
USER    NEWDPF tran0 29.268017 38.620245 28.797210
USER    NEWDPF quaternion0 0.766663 0.509353 0.335595 0.200408
USER    NEWDPF axisangle0 0.782539 0.519901 0.342544 156.878337
USER    NEWDPF quat0 0.782539 0.519901 0.342544 156.878337
USER    NEWDPF dihe0 -137.11 -126.00 173.04 -142.76 -8.95 77.67 -62.67 18.90 -91.85 
USER  keepresnum = 1 
USER  
REMARK  9 active torsions:
REMARK  status: ('A' for Active; 'I' for Inactive)
REMARK    1  A    between atoms: C1_1  and  C2_2 
REMARK    2  A    between atoms: C1_1  and  C3_3 
REMARK    3  A    between atoms: C2_2  and  C4_4 
REMARK    4  A    between atoms: C3_3  and  C5_5 
REMARK    5  A    between atoms: C4_4  and  C6_6 
REMARK    6  A    between atoms: C5_5  and  C7_7 
REMARK    7  A    between atoms: C6_6  and  C8_8 
REMARK    8  A    between atoms: C7_7  and  C9_9 
REMARK    9  A    between atoms: C8_8  and  C10_10 
USER                              x       y       z     vdW  Elec       q    Type
USER                           _______ _______ _______ _____ _____    ______ ____
ROOT
ATOM      1  C1  MOL C   1      30.279  38.691  28.222 +0.16 -0.00    +0.000 C 
ENDROOT
BRANCH   1   2
ATOM      2  C2  MOL C   1      29.823  39.577  29.390 +0.32 -0.00    +0.000 C 
BRANCH   2   3
ATOM      3  C4  MOL C   1      28.709  40.523  28.833 +0.64 -0.00    +0.000 C 
BRANCH   3   4
ATOM      4  C6  MOL C   1      27.304  40.382  29.625 -0.30 -0.00    +0.000 C 
BRANCH   4   5
ATOM      5  C8  MOL C   1      26.251  39.503  28.989 +0.02 +0.00    -0.000 C 
BRANCH   5   6
ATOM      6  C10 MOL C   1      26.626  39.313  27.523 -0.49 +0.00    -0.005 C 
ATOM      7  C12 MOL C   1      26.253  40.411  26.572 -0.52 -0.00    +0.005 C 
ENDBRANCH   5   6
ENDBRANCH   4   5
ENDBRANCH   3   4
ENDBRANCH   2   3
ENDBRANCH   1   2
BRANCH   1   8
ATOM      8  C3  MOL C   1      29.242  38.983  27.065 -0.40 -0.00    +0.000 C 
BRANCH   8   9
ATOM      9  C5  MOL C   1      28.807  37.552  26.375 -0.42 -0.00    +0.000 C 
BRANCH   9  10
ATOM     10  C7  MOL C   1      29.099  36.253  27.215 -0.48 +0.00    -0.000 C 
BRANCH  10  11
ATOM     11  C9  MOL C   1      28.560  36.274  28.688 -0.54 +0.00    -0.005 C 
ATOM     12  C11 MOL C   1      26.994  36.260  28.604 +0.21 -0.00    +0.005 C 
ENDBRANCH  10  11
ENDBRANCH   9  10
ENDBRANCH   8   9
ENDBRANCH   1   8
TORSDOF 9
TER
ENDMDL
MODEL       58
USER    Run = 58
USER    DPF = lac1.dpf
USER  
USER    Estimated Free Energy of Binding    =   -0.17 kcal/mol  [=(1)+(2)+(3)-(4)]
USER    Estimated Inhibition Constant, Ki   =  754.25 mM (millimolar)  [Temperature = 298.15 K]
USER    
USER    (1) Final Intermolecular Energy     =   -3.89 kcal/mol
USER        vdW + Hbond + desolv Energy     =   -3.90 kcal/mol
USER        Electrostatic Energy            =   +0.00 kcal/mol
USER    (2) Final Total Internal Energy     =   +0.76 kcal/mol
USER    (3) Torsional Free Energy           =   +2.68 kcal/mol
USER    (4) Unbound System's Energy         =   -0.29 kcal/mol
USER    
USER    
USER    NEWDPF move PE_ligand.pdbqt
USER    NEWDPF about 3.037000 5.209000 3.149000
USER    NEWDPF tran0 28.870519 37.417114 28.517216
USER    NEWDPF quaternion0 0.608003 0.606690 0.496514 0.125436
USER    NEWDPF axisangle0 0.612843 0.611520 0.500467 165.588085
USER    NEWDPF quat0 0.612843 0.611520 0.500467 165.588085
USER    NEWDPF dihe0 14.22 164.01 -159.25 -126.71 142.25 115.68 -7.48 85.12 -141.96 
USER  keepresnum = 1 
USER  
REMARK  9 active torsions:
REMARK  status: ('A' for Active; 'I' for Inactive)
REMARK    1  A    between atoms: C1_1  and  C2_2 
REMARK    2  A    between atoms: C1_1  and  C3_3 
REMARK    3  A    between atoms: C2_2  and  C4_4 
REMARK    4  A    between atoms: C3_3  and  C5_5 
REMARK    5  A    between atoms: C4_4  and  C6_6 
REMARK    6  A    between atoms: C5_5  and  C7_7 
REMARK    7  A    between atoms: C6_6  and  C8_8 
REMARK    8  A    between atoms: C7_7  and  C9_9 
REMARK    9  A    between atoms: C8_8  and  C10_10 
USER                              x       y       z     vdW  Elec       q    Type
USER                           _______ _______ _______ _____ _____    ______ ____
ROOT
ATOM      1  C1  MOL C   1      29.994  37.720  28.469 -0.15 -0.00    +0.000 C 
ENDROOT
BRANCH   1   2
ATOM      2  C2  MOL C   1      28.896  38.400  29.298 -0.08 -0.00    +0.000 C 
BRANCH   2   3
ATOM      3  C4  MOL C   1      28.860  39.900  28.859 -0.62 -0.00    +0.000 C 
BRANCH   3   4
ATOM      4  C6  MOL C   1      27.694  40.748  29.594 -0.02 -0.00    +0.000 C 
BRANCH   4   5
ATOM      5  C8  MOL C   1      27.658  40.684  31.104 -0.59 +0.00    -0.000 C 
BRANCH   5   6
ATOM      6  C10 MOL C   1      28.935  39.994  31.573 -0.20 +0.01    -0.005 C 
ATOM      7  C12 MOL C   1      30.221  40.747  31.407 -0.51 -0.00    +0.005 C 
ENDBRANCH   5   6
ENDBRANCH   4   5
ENDBRANCH   3   4
ENDBRANCH   2   3
ENDBRANCH   1   2
BRANCH   1   8
ATOM      8  C3  MOL C   1      29.552  37.927  26.965 -0.43 -0.00    +0.000 C 
BRANCH   8   9
ATOM      9  C5  MOL C   1      28.221  37.001  26.676 -0.38 -0.00    +0.000 C 
BRANCH   9  10
ATOM     10  C7  MOL C   1      26.985  37.238  27.621 -0.04 +0.00    -0.000 C 
BRANCH  10  11
ATOM     11  C9  MOL C   1      26.280  38.630  27.462 -0.39 +0.00    -0.005 C 
ATOM     12  C11 MOL C   1      27.097  39.440  26.396 -0.50 -0.00    +0.005 C 
ENDBRANCH  10  11
ENDBRANCH   9  10
ENDBRANCH   8   9
ENDBRANCH   1   8
TORSDOF 9
TER
ENDMDL
MODEL       59
USER    Run = 59
USER    DPF = lac1.dpf
USER  
USER    Estimated Free Energy of Binding    =   +0.82 kcal/mol  [=(1)+(2)+(3)-(4)]
USER    
USER    (1) Final Intermolecular Energy     =   -3.08 kcal/mol
USER        vdW + Hbond + desolv Energy     =   -3.08 kcal/mol
USER        Electrostatic Energy            =   -0.00 kcal/mol
USER    (2) Final Total Internal Energy     =   +0.93 kcal/mol
USER    (3) Torsional Free Energy           =   +2.68 kcal/mol
USER    (4) Unbound System's Energy         =   -0.29 kcal/mol
USER    
USER    
USER    NEWDPF move PE_ligand.pdbqt
USER    NEWDPF about 3.037000 5.209000 3.149000
USER    NEWDPF tran0 28.572683 39.471346 27.904980
USER    NEWDPF quaternion0 -0.827300 0.147461 0.460056 -0.286668
USER    NEWDPF axisangle0 -0.863543 0.153921 0.480211 -146.682878
USER    NEWDPF quat0 -0.863543 0.153921 0.480211 -146.682878
USER    NEWDPF dihe0 -57.42 120.47 100.61 137.29 66.19 176.35 -126.89 20.59 39.81 
USER  keepresnum = 1 
USER  
REMARK  9 active torsions:
REMARK  status: ('A' for Active; 'I' for Inactive)
REMARK    1  A    between atoms: C1_1  and  C2_2 
REMARK    2  A    between atoms: C1_1  and  C3_3 
REMARK    3  A    between atoms: C2_2  and  C4_4 
REMARK    4  A    between atoms: C3_3  and  C5_5 
REMARK    5  A    between atoms: C4_4  and  C6_6 
REMARK    6  A    between atoms: C5_5  and  C7_7 
REMARK    7  A    between atoms: C6_6  and  C8_8 
REMARK    8  A    between atoms: C7_7  and  C9_9 
REMARK    9  A    between atoms: C8_8  and  C10_10 
USER                              x       y       z     vdW  Elec       q    Type
USER                           _______ _______ _______ _____ _____    ______ ____
ROOT
ATOM      1  C1  MOL C   1      27.556  39.237  27.387 -0.53 -0.00    +0.000 C 
ENDROOT
BRANCH   1   2
ATOM      2  C2  MOL C   1      28.873  39.613  26.694 -0.38 -0.00    +0.000 C 
BRANCH   2   3
ATOM      3  C4  MOL C   1      29.925  38.531  27.105 +0.07 -0.00    +0.000 C 
BRANCH   3   4
ATOM      4  C6  MOL C   1      29.474  37.027  26.711 -0.46 -0.00    +0.000 C 
BRANCH   4   5
ATOM      5  C8  MOL C   1      27.991  36.788  26.537 -0.24 +0.00    -0.000 C 
BRANCH   5   6
ATOM      6  C10 MOL C   1      27.423  36.374  27.890 -0.33 +0.00    -0.005 C 
ATOM      7  C12 MOL C   1      28.388  36.253  29.031 -0.38 -0.00    +0.005 C 
ENDBRANCH   5   6
ENDBRANCH   4   5
ENDBRANCH   3   4
ENDBRANCH   2   3
ENDBRANCH   1   2
BRANCH   1   8
ATOM      8  C3  MOL C   1      27.178  40.506  28.253 -0.55 -0.00    +0.000 C 
BRANCH   8   9
ATOM      9  C5  MOL C   1      26.725  40.001  29.754 +0.62 -0.00    +0.000 C 
BRANCH   9  10
ATOM     10  C7  MOL C   1      27.624  40.479  30.954 -0.52 +0.00    -0.000 C 
BRANCH  10  11
ATOM     11  C9  MOL C   1      29.128  40.747  30.597 -0.36 +0.00    -0.005 C 
ATOM     12  C11 MOL C   1      29.619  39.533  29.734 -0.01 -0.00    +0.005 C 
ENDBRANCH  10  11
ENDBRANCH   9  10
ENDBRANCH   8   9
ENDBRANCH   1   8
TORSDOF 9
TER
ENDMDL
MODEL       60
USER    Run = 60
USER    DPF = lac1.dpf
USER  
USER    Estimated Free Energy of Binding    =   +1.86 kcal/mol  [=(1)+(2)+(3)-(4)]
USER    
USER    (1) Final Intermolecular Energy     =   -2.35 kcal/mol
USER        vdW + Hbond + desolv Energy     =   -2.35 kcal/mol
USER        Electrostatic Energy            =   -0.00 kcal/mol
USER    (2) Final Total Internal Energy     =   +1.24 kcal/mol
USER    (3) Torsional Free Energy           =   +2.68 kcal/mol
USER    (4) Unbound System's Energy         =   -0.29 kcal/mol
USER    
USER    
USER    NEWDPF move PE_ligand.pdbqt
USER    NEWDPF about 3.037000 5.209000 3.149000
USER    NEWDPF tran0 27.492894 39.521415 28.062313
USER    NEWDPF quaternion0 -0.329411 -0.862581 -0.323869 -0.206279
USER    NEWDPF axisangle0 -0.336652 -0.881540 -0.330987 -156.191212
USER    NEWDPF quat0 -0.336652 -0.881540 -0.330987 -156.191212
USER    NEWDPF dihe0 161.76 -25.96 168.36 174.56 27.09 -36.91 179.87 99.50 61.18 
USER  keepresnum = 1 
USER  
REMARK  9 active torsions:
REMARK  status: ('A' for Active; 'I' for Inactive)
REMARK    1  A    between atoms: C1_1  and  C2_2 
REMARK    2  A    between atoms: C1_1  and  C3_3 
REMARK    3  A    between atoms: C2_2  and  C4_4 
REMARK    4  A    between atoms: C3_3  and  C5_5 
REMARK    5  A    between atoms: C4_4  and  C6_6 
REMARK    6  A    between atoms: C5_5  and  C7_7 
REMARK    7  A    between atoms: C6_6  and  C8_8 
REMARK    8  A    between atoms: C7_7  and  C9_9 
REMARK    9  A    between atoms: C8_8  and  C10_10 
USER                              x       y       z     vdW  Elec       q    Type
USER                           _______ _______ _______ _____ _____    ______ ____
ROOT
ATOM      1  C1  MOL C   1      28.076  40.504  27.836 -0.52 -0.00    +0.000 C 
ENDROOT
BRANCH   1   2
ATOM      2  C2  MOL C   1      26.712  40.386  28.530 -0.31 -0.00    +0.000 C 
BRANCH   2   3
ATOM      3  C4  MOL C   1      26.994  40.011  30.022 +0.25 -0.00    +0.000 C 
BRANCH   3   4
ATOM      4  C6  MOL C   1      28.572  39.984  30.381 -0.62 -0.00    +0.000 C 
BRANCH   4   5
ATOM      5  C8  MOL C   1      29.419  38.974  29.640 +0.59 +0.00    -0.000 C 
BRANCH   5   6
ATOM      6  C10 MOL C   1      28.497  37.865  29.146 +0.12 +0.00    -0.005 C 
ATOM      7  C12 MOL C   1      29.032  36.464  29.178 +0.01 -0.00    +0.005 C 
ENDBRANCH   5   6
ENDBRANCH   4   5
ENDBRANCH   3   4
ENDBRANCH   2   3
ENDBRANCH   1   2
BRANCH   1   8
ATOM      8  C3  MOL C   1      27.838  39.942  26.378 -0.54 -0.00    +0.000 C 
BRANCH   8   9
ATOM      9  C5  MOL C   1      27.218  38.420  26.496 -0.36 -0.00    +0.000 C 
BRANCH   9  10
ATOM     10  C7  MOL C   1      28.247  37.235  26.379 -0.38 +0.00    -0.000 C 
BRANCH  10  11
ATOM     11  C9  MOL C   1      29.757  37.657  26.385 -0.23 +0.00    -0.005 C 
ATOM     12  C11 MOL C   1      30.600  36.350  26.587 -0.34 -0.00    +0.005 C 
ENDBRANCH  10  11
ENDBRANCH   9  10
ENDBRANCH   8   9
ENDBRANCH   1   8
TORSDOF 9
TER
ENDMDL
MODEL       61
USER    Run = 61
USER    DPF = lac1.dpf
USER  
USER    Estimated Free Energy of Binding    =   -1.79 kcal/mol  [=(1)+(2)+(3)-(4)]
USER    Estimated Inhibition Constant, Ki   =   48.80 mM (millimolar)  [Temperature = 298.15 K]
USER    
USER    (1) Final Intermolecular Energy     =   -4.85 kcal/mol
USER        vdW + Hbond + desolv Energy     =   -4.85 kcal/mol
USER        Electrostatic Energy            =   -0.00 kcal/mol
USER    (2) Final Total Internal Energy     =   +0.09 kcal/mol
USER    (3) Torsional Free Energy           =   +2.68 kcal/mol
USER    (4) Unbound System's Energy         =   -0.29 kcal/mol
USER    
USER    
USER    NEWDPF move PE_ligand.pdbqt
USER    NEWDPF about 3.037000 5.209000 3.149000
USER    NEWDPF tran0 26.443804 37.649963 28.626397
USER    NEWDPF quaternion0 0.501805 0.813102 0.073224 -0.285823
USER    NEWDPF axisangle0 0.523651 0.848499 0.076411 -146.783868
USER    NEWDPF quat0 0.523651 0.848499 0.076411 -146.783868
USER    NEWDPF dihe0 158.60 -120.00 -165.64 -146.51 5.96 74.56 -168.27 -99.31 126.84 
USER  keepresnum = 1 
USER  
REMARK  9 active torsions:
REMARK  status: ('A' for Active; 'I' for Inactive)
REMARK    1  A    between atoms: C1_1  and  C2_2 
REMARK    2  A    between atoms: C1_1  and  C3_3 
REMARK    3  A    between atoms: C2_2  and  C4_4 
REMARK    4  A    between atoms: C3_3  and  C5_5 
REMARK    5  A    between atoms: C4_4  and  C6_6 
REMARK    6  A    between atoms: C5_5  and  C7_7 
REMARK    7  A    between atoms: C6_6  and  C8_8 
REMARK    8  A    between atoms: C7_7  and  C9_9 
REMARK    9  A    between atoms: C8_8  and  C10_10 
USER                              x       y       z     vdW  Elec       q    Type
USER                           _______ _______ _______ _____ _____    ______ ____
ROOT
ATOM      1  C1  MOL C   1      27.568  37.855  28.398 -0.20 -0.00    +0.000 C 
ENDROOT
BRANCH   1   2
ATOM      2  C2  MOL C   1      26.366  38.675  27.905 -0.44 -0.00    +0.000 C 
BRANCH   2   3
ATOM      3  C4  MOL C   1      26.834  40.165  27.833 -0.58 -0.00    +0.000 C 
BRANCH   3   4
ATOM      4  C6  MOL C   1      28.445  40.326  27.866 -0.56 -0.00    +0.000 C 
BRANCH   4   5
ATOM      5  C8  MOL C   1      29.099  40.316  29.229 -0.21 +0.00    -0.000 C 
BRANCH   5   6
ATOM      6  C10 MOL C   1      28.013  40.058  30.267 -0.58 +0.00    -0.005 C 
ATOM      7  C12 MOL C   1      28.162  40.732  31.598 -0.76 -0.00    +0.005 C 
ENDBRANCH   5   6
ENDBRANCH   4   5
ENDBRANCH   3   4
ENDBRANCH   2   3
ENDBRANCH   1   2
BRANCH   1   8
ATOM      8  C3  MOL C   1      27.375  36.426  27.750 -0.23 -0.00    +0.000 C 
BRANCH   8   9
ATOM      9  C5  MOL C   1      28.459  36.257  26.520 -0.39 -0.00    +0.000 C 
BRANCH   9  10
ATOM     10  C7  MOL C   1      29.639  37.298  26.479 -0.43 +0.00    -0.000 C 
BRANCH  10  11
ATOM     11  C9  MOL C   1      30.378  37.524  27.844 -0.20 +0.00    -0.005 C 
ATOM     12  C11 MOL C   1      31.256  36.252  28.107 -0.27 -0.00    +0.005 C 
ENDBRANCH  10  11
ENDBRANCH   9  10
ENDBRANCH   8   9
ENDBRANCH   1   8
TORSDOF 9
TER
ENDMDL
MODEL       62
USER    Run = 62
USER    DPF = lac1.dpf
USER  
USER    Estimated Free Energy of Binding    =   -1.64 kcal/mol  [=(1)+(2)+(3)-(4)]
USER    Estimated Inhibition Constant, Ki   =   62.88 mM (millimolar)  [Temperature = 298.15 K]
USER    
USER    (1) Final Intermolecular Energy     =   -5.04 kcal/mol
USER        vdW + Hbond + desolv Energy     =   -5.04 kcal/mol
USER        Electrostatic Energy            =   -0.00 kcal/mol
USER    (2) Final Total Internal Energy     =   +0.43 kcal/mol
USER    (3) Torsional Free Energy           =   +2.68 kcal/mol
USER    (4) Unbound System's Energy         =   -0.29 kcal/mol
USER    
USER    
USER    NEWDPF move PE_ligand.pdbqt
USER    NEWDPF about 3.037000 5.209000 3.149000
USER    NEWDPF tran0 27.933736 39.455467 27.681528
USER    NEWDPF quaternion0 -0.853516 -0.105211 0.061875 -0.506569
USER    NEWDPF axisangle0 -0.989929 -0.122027 0.071764 -119.128938
USER    NEWDPF quat0 -0.989929 -0.122027 0.071764 -119.128938
USER    NEWDPF dihe0 -143.41 25.08 -144.97 -74.02 -32.58 100.86 -150.82 89.24 54.74 
USER  keepresnum = 1 
USER  
REMARK  9 active torsions:
REMARK  status: ('A' for Active; 'I' for Inactive)
REMARK    1  A    between atoms: C1_1  and  C2_2 
REMARK    2  A    between atoms: C1_1  and  C3_3 
REMARK    3  A    between atoms: C2_2  and  C4_4 
REMARK    4  A    between atoms: C3_3  and  C5_5 
REMARK    5  A    between atoms: C4_4  and  C6_6 
REMARK    6  A    between atoms: C5_5  and  C7_7 
REMARK    7  A    between atoms: C6_6  and  C8_8 
REMARK    8  A    between atoms: C7_7  and  C9_9 
REMARK    9  A    between atoms: C8_8  and  C10_10 
USER                              x       y       z     vdW  Elec       q    Type
USER                           _______ _______ _______ _____ _____    ______ ____
ROOT
ATOM      1  C1  MOL C   1      27.769  39.668  26.548 -0.56 -0.00    +0.000 C 
ENDROOT
BRANCH   1   2
ATOM      2  C2  MOL C   1      29.021  40.001  27.372 -0.29 -0.00    +0.000 C 
BRANCH   2   3
ATOM      3  C4  MOL C   1      29.770  38.651  27.624 -0.43 -0.00    +0.000 C 
BRANCH   3   4
ATOM      4  C6  MOL C   1      29.630  37.610  26.393 -0.34 -0.00    +0.000 C 
BRANCH   4   5
ATOM      5  C8  MOL C   1      29.023  36.262  26.710 -0.45 +0.00    -0.000 C 
BRANCH   5   6
ATOM      6  C10 MOL C   1      28.156  36.421  27.954 -0.49 +0.00    -0.005 C 
ATOM      7  C12 MOL C   1      28.826  36.252  29.284 -0.12 -0.00    +0.005 C 
ENDBRANCH   5   6
ENDBRANCH   4   5
ENDBRANCH   3   4
ENDBRANCH   2   3
ENDBRANCH   1   2
BRANCH   1   8
ATOM      8  C3  MOL C   1      26.617  40.534  27.196 -0.53 -0.00    +0.000 C 
BRANCH   8   9
ATOM      9  C5  MOL C   1      26.349  39.991  28.728 -0.19 -0.00    +0.000 C 
BRANCH   9  10
ATOM     10  C7  MOL C   1      27.625  39.630  29.576 -0.37 +0.00    -0.000 C 
BRANCH  10  11
ATOM     11  C9  MOL C   1      27.796  40.444  30.905 -0.63 +0.00    -0.005 C 
ATOM     12  C11 MOL C   1      29.327  40.748  31.064 -0.63 -0.00    +0.005 C 
ENDBRANCH  10  11
ENDBRANCH   9  10
ENDBRANCH   8   9
ENDBRANCH   1   8
TORSDOF 9
TER
ENDMDL
MODEL       63
USER    Run = 63
USER    DPF = lac1.dpf
USER  
USER    Estimated Free Energy of Binding    =   +0.48 kcal/mol  [=(1)+(2)+(3)-(4)]
USER    
USER    (1) Final Intermolecular Energy     =   -3.62 kcal/mol
USER        vdW + Hbond + desolv Energy     =   -3.62 kcal/mol
USER        Electrostatic Energy            =   -0.00 kcal/mol
USER    (2) Final Total Internal Energy     =   +1.13 kcal/mol
USER    (3) Torsional Free Energy           =   +2.68 kcal/mol
USER    (4) Unbound System's Energy         =   -0.29 kcal/mol
USER    
USER    
USER    NEWDPF move PE_ligand.pdbqt
USER    NEWDPF about 3.037000 5.209000 3.149000
USER    NEWDPF tran0 28.718813 39.253291 27.906720
USER    NEWDPF quaternion0 0.342999 0.774408 -0.012605 -0.531493
USER    NEWDPF axisangle0 0.404928 0.914227 -0.014881 -115.787187
USER    NEWDPF quat0 0.404928 0.914227 -0.014881 -115.787187
USER    NEWDPF dihe0 146.30 102.01 -131.62 174.10 157.98 -42.29 106.78 179.69 42.83 
USER  keepresnum = 1 
USER  
REMARK  9 active torsions:
REMARK  status: ('A' for Active; 'I' for Inactive)
REMARK    1  A    between atoms: C1_1  and  C2_2 
REMARK    2  A    between atoms: C1_1  and  C3_3 
REMARK    3  A    between atoms: C2_2  and  C4_4 
REMARK    4  A    between atoms: C3_3  and  C5_5 
REMARK    5  A    between atoms: C4_4  and  C6_6 
REMARK    6  A    between atoms: C5_5  and  C7_7 
REMARK    7  A    between atoms: C6_6  and  C8_8 
REMARK    8  A    between atoms: C7_7  and  C9_9 
REMARK    9  A    between atoms: C8_8  and  C10_10 
USER                              x       y       z     vdW  Elec       q    Type
USER                           _______ _______ _______ _____ _____    ______ ____
ROOT
ATOM      1  C1  MOL C   1      29.836  39.576  27.970 -0.26 -0.00    +0.000 C 
ENDROOT
BRANCH   1   2
ATOM      2  C2  MOL C   1      28.872  39.832  26.803 -0.41 -0.00    +0.000 C 
BRANCH   2   3
ATOM      3  C4  MOL C   1      27.718  40.730  27.359 -0.38 -0.00    +0.000 C 
BRANCH   3   4
ATOM      4  C6  MOL C   1      26.768  39.959  28.418 -0.53 -0.00    +0.000 C 
BRANCH   4   5
ATOM      5  C8  MOL C   1      27.387  39.602  29.750 +0.06 +0.00    -0.000 C 
BRANCH   5   6
ATOM      6  C10 MOL C   1      28.307  40.747  30.159 -0.09 +0.00    -0.005 C 
ATOM      7  C12 MOL C   1      29.391  40.436  31.146 -0.64 -0.00    +0.005 C 
ENDBRANCH   5   6
ENDBRANCH   4   5
ENDBRANCH   3   4
ENDBRANCH   2   3
ENDBRANCH   1   2
BRANCH   1   8
ATOM      8  C3  MOL C   1      29.963  38.002  28.052 -0.42 -0.00    +0.000 C 
BRANCH   8   9
ATOM      9  C5  MOL C   1      29.618  37.370  26.570 -0.44 -0.00    +0.000 C 
BRANCH   9  10
ATOM     10  C7  MOL C   1      28.184  36.745  26.392 -0.33 +0.00    -0.000 C 
BRANCH  10  11
ATOM     11  C9  MOL C   1      27.196  36.991  27.584 -0.05 +0.00    -0.005 C 
ATOM     12  C11 MOL C   1      27.788  36.251  28.833 -0.14 -0.00    +0.005 C 
ENDBRANCH  10  11
ENDBRANCH   9  10
ENDBRANCH   8   9
ENDBRANCH   1   8
TORSDOF 9
TER
ENDMDL
MODEL       64
USER    Run = 64
USER    DPF = lac1.dpf
USER  
USER    Estimated Free Energy of Binding    =   +0.16 kcal/mol  [=(1)+(2)+(3)-(4)]
USER    
USER    (1) Final Intermolecular Energy     =   -3.55 kcal/mol
USER        vdW + Hbond + desolv Energy     =   -3.55 kcal/mol
USER        Electrostatic Energy            =   +0.00 kcal/mol
USER    (2) Final Total Internal Energy     =   +0.73 kcal/mol
USER    (3) Torsional Free Energy           =   +2.68 kcal/mol
USER    (4) Unbound System's Energy         =   -0.29 kcal/mol
USER    
USER    
USER    NEWDPF move PE_ligand.pdbqt
USER    NEWDPF about 3.037000 5.209000 3.149000
USER    NEWDPF tran0 28.068166 38.485063 27.655932
USER    NEWDPF quaternion0 -0.255983 -0.857962 0.266359 -0.356969
USER    NEWDPF axisangle0 -0.274037 -0.918475 0.285145 -138.171704
USER    NEWDPF quat0 -0.274037 -0.918475 0.285145 -138.171704
USER    NEWDPF dihe0 -97.95 98.38 -97.45 173.37 -170.98 -18.08 -8.95 119.50 51.03 
USER  keepresnum = 1 
USER  
REMARK  9 active torsions:
REMARK  status: ('A' for Active; 'I' for Inactive)
REMARK    1  A    between atoms: C1_1  and  C2_2 
REMARK    2  A    between atoms: C1_1  and  C3_3 
REMARK    3  A    between atoms: C2_2  and  C4_4 
REMARK    4  A    between atoms: C3_3  and  C5_5 
REMARK    5  A    between atoms: C4_4  and  C6_6 
REMARK    6  A    between atoms: C5_5  and  C7_7 
REMARK    7  A    between atoms: C6_6  and  C8_8 
REMARK    8  A    between atoms: C7_7  and  C9_9 
REMARK    9  A    between atoms: C8_8  and  C10_10 
USER                              x       y       z     vdW  Elec       q    Type
USER                           _______ _______ _______ _____ _____    ______ ____
ROOT
ATOM      1  C1  MOL C   1      27.785  38.846  26.585 -0.47 -0.00    +0.000 C 
ENDROOT
BRANCH   1   2
ATOM      2  C2  MOL C   1      27.089  39.233  27.898 -0.52 -0.00    +0.000 C 
BRANCH   2   3
ATOM      3  C4  MOL C   1      28.078  40.160  28.679 -0.58 -0.00    +0.000 C 
BRANCH   3   4
ATOM      4  C6  MOL C   1      27.447  40.750  30.047 +0.00 -0.00    +0.000 C 
BRANCH   4   5
ATOM      5  C8  MOL C   1      27.836  40.052  31.330 -0.16 +0.00    -0.000 C 
BRANCH   5   6
ATOM      6  C10 MOL C   1      29.293  40.393  31.623 -0.56 +0.01    -0.005 C 
ATOM      7  C12 MOL C   1      30.247  40.376  30.467 +0.57 -0.00    +0.005 C 
ENDBRANCH   5   6
ENDBRANCH   4   5
ENDBRANCH   3   4
ENDBRANCH   2   3
ENDBRANCH   1   2
BRANCH   1   8
ATOM      8  C3  MOL C   1      27.564  37.286  26.455 +0.04 -0.00    +0.000 C 
BRANCH   8   9
ATOM      9  C5  MOL C   1      27.619  36.620  27.961 -0.42 -0.00    +0.000 C 
BRANCH   9  10
ATOM     10  C7  MOL C   1      29.049  36.428  28.590 -0.55 +0.00    -0.000 C 
BRANCH  10  11
ATOM     11  C9  MOL C   1      30.227  37.072  27.779 -0.43 +0.00    -0.005 C 
ATOM     12  C11 MOL C   1      30.364  36.258  26.445 -0.48 -0.00    +0.005 C 
ENDBRANCH  10  11
ENDBRANCH   9  10
ENDBRANCH   8   9
ENDBRANCH   1   8
TORSDOF 9
TER
ENDMDL
MODEL       65
USER    Run = 65
USER    DPF = lac1.dpf
USER  
USER    Estimated Free Energy of Binding    =   -1.26 kcal/mol  [=(1)+(2)+(3)-(4)]
USER    Estimated Inhibition Constant, Ki   =  119.50 mM (millimolar)  [Temperature = 298.15 K]
USER    
USER    (1) Final Intermolecular Energy     =   -4.21 kcal/mol
USER        vdW + Hbond + desolv Energy     =   -4.21 kcal/mol
USER        Electrostatic Energy            =   -0.00 kcal/mol
USER    (2) Final Total Internal Energy     =   -0.02 kcal/mol
USER    (3) Torsional Free Energy           =   +2.68 kcal/mol
USER    (4) Unbound System's Energy         =   -0.29 kcal/mol
USER    
USER    
USER    NEWDPF move PE_ligand.pdbqt
USER    NEWDPF about 3.037000 5.209000 3.149000
USER    NEWDPF tran0 28.907002 38.918159 27.927380
USER    NEWDPF quaternion0 -0.874363 0.120313 -0.170969 -0.437932
USER    NEWDPF axisangle0 -0.972586 0.133828 -0.190176 -128.056045
USER    NEWDPF quat0 -0.972586 0.133828 -0.190176 -128.056045
USER    NEWDPF dihe0 89.16 -18.77 -177.06 146.08 11.02 153.45 -169.27 62.69 74.72 
USER  keepresnum = 1 
USER  
REMARK  9 active torsions:
REMARK  status: ('A' for Active; 'I' for Inactive)
REMARK    1  A    between atoms: C1_1  and  C2_2 
REMARK    2  A    between atoms: C1_1  and  C3_3 
REMARK    3  A    between atoms: C2_2  and  C4_4 
REMARK    4  A    between atoms: C3_3  and  C5_5 
REMARK    5  A    between atoms: C4_4  and  C6_6 
REMARK    6  A    between atoms: C5_5  and  C7_7 
REMARK    7  A    between atoms: C6_6  and  C8_8 
REMARK    8  A    between atoms: C7_7  and  C9_9 
REMARK    9  A    between atoms: C8_8  and  C10_10 
USER                              x       y       z     vdW  Elec       q    Type
USER                           _______ _______ _______ _____ _____    ______ ____
ROOT
ATOM      1  C1  MOL C   1      29.061  38.992  26.775 -0.33 -0.00    +0.000 C 
ENDROOT
BRANCH   1   2
ATOM      2  C2  MOL C   1      30.136  38.682  27.827 -0.21 -0.00    +0.000 C 
BRANCH   2   3
ATOM      3  C4  MOL C   1      30.238  37.125  27.925 -0.42 -0.00    +0.000 C 
BRANCH   3   4
ATOM      4  C6  MOL C   1      29.533  36.364  26.682 -0.47 -0.00    +0.000 C 
BRANCH   4   5
ATOM      5  C8  MOL C   1      28.026  36.253  26.722 -0.22 +0.00    -0.000 C 
BRANCH   5   6
ATOM      6  C10 MOL C   1      27.556  36.749  28.085 -0.40 +0.00    -0.005 C 
ATOM      7  C12 MOL C   1      26.252  37.487  28.134 +0.16 -0.00    +0.005 C 
ENDBRANCH   5   6
ENDBRANCH   4   5
ENDBRANCH   3   4
ENDBRANCH   2   3
ENDBRANCH   1   2
BRANCH   1   8
ATOM      8  C3  MOL C   1      28.571  40.456  27.117 -0.12 -0.00    +0.000 C 
BRANCH   8   9
ATOM      9  C5  MOL C   1      27.275  40.353  28.128 -0.61 -0.00    +0.000 C 
BRANCH   9  10
ATOM     10  C7  MOL C   1      27.581  40.435  29.670 -0.42 +0.00    -0.000 C 
BRANCH  10  11
ATOM     11  C9  MOL C   1      29.065  40.125  30.073 -0.57 +0.00    -0.005 C 
ATOM     12  C11 MOL C   1      29.187  40.393  31.614 -0.60 -0.01    +0.005 C 
ENDBRANCH  10  11
ENDBRANCH   9  10
ENDBRANCH   8   9
ENDBRANCH   1   8
TORSDOF 9
TER
ENDMDL
MODEL       66
USER    Run = 66
USER    DPF = lac1.dpf
USER  
USER    Estimated Free Energy of Binding    =   +0.42 kcal/mol  [=(1)+(2)+(3)-(4)]
USER    
USER    (1) Final Intermolecular Energy     =   -4.76 kcal/mol
USER        vdW + Hbond + desolv Energy     =   -4.76 kcal/mol
USER        Electrostatic Energy            =   -0.00 kcal/mol
USER    (2) Final Total Internal Energy     =   +2.21 kcal/mol
USER    (3) Torsional Free Energy           =   +2.68 kcal/mol
USER    (4) Unbound System's Energy         =   -0.29 kcal/mol
USER    
USER    
USER    NEWDPF move PE_ligand.pdbqt
USER    NEWDPF about 3.037000 5.209000 3.149000
USER    NEWDPF tran0 26.934774 38.785363 26.380363
USER    NEWDPF quaternion0 0.283232 0.124744 0.788578 0.531379
USER    NEWDPF axisangle0 0.334342 0.147254 0.930877 115.802636
USER    NEWDPF quat0 0.334342 0.147254 0.930877 115.802636
USER    NEWDPF dihe0 -52.02 -41.50 -112.90 -173.54 147.44 114.76 146.93 -165.71 109.13 
USER  keepresnum = 1 
USER  
REMARK  9 active torsions:
REMARK  status: ('A' for Active; 'I' for Inactive)
REMARK    1  A    between atoms: C1_1  and  C2_2 
REMARK    2  A    between atoms: C1_1  and  C3_3 
REMARK    3  A    between atoms: C2_2  and  C4_4 
REMARK    4  A    between atoms: C3_3  and  C5_5 
REMARK    5  A    between atoms: C4_4  and  C6_6 
REMARK    6  A    between atoms: C5_5  and  C7_7 
REMARK    7  A    between atoms: C6_6  and  C8_8 
REMARK    8  A    between atoms: C7_7  and  C9_9 
REMARK    9  A    between atoms: C8_8  and  C10_10 
USER                              x       y       z     vdW  Elec       q    Type
USER                           _______ _______ _______ _____ _____    ______ ____
ROOT
ATOM      1  C1  MOL C   1      28.000  38.892  26.839 -0.49 -0.00    +0.000 C 
ENDROOT
BRANCH   1   2
ATOM      2  C2  MOL C   1      26.860  38.006  27.362 -0.27 -0.00    +0.000 C 
BRANCH   2   3
ATOM      3  C4  MOL C   1      27.450  36.569  27.541 -0.17 -0.00    +0.000 C 
BRANCH   3   4
ATOM      4  C6  MOL C   1      28.672  36.254  26.527 -0.42 -0.00    +0.000 C 
BRANCH   4   5
ATOM      5  C8  MOL C   1      29.865  37.180  26.595 -0.41 +0.00    -0.000 C 
BRANCH   5   6
ATOM      6  C10 MOL C   1      30.380  37.174  28.030 -0.30 +0.00    -0.005 C 
ATOM      7  C12 MOL C   1      29.702  36.251  28.998 -0.35 -0.00    +0.005 C 
ENDBRANCH   5   6
ENDBRANCH   4   5
ENDBRANCH   3   4
ENDBRANCH   2   3
ENDBRANCH   1   2
BRANCH   1   8
ATOM      8  C3  MOL C   1      27.456  40.371  26.972 -0.54 -0.00    +0.000 C 
BRANCH   8   9
ATOM      9  C5  MOL C   1      26.612  40.495  28.382 -0.20 -0.00    +0.000 C 
BRANCH   9  10
ATOM     10  C7  MOL C   1      27.378  40.082  29.694 -0.46 +0.00    -0.000 C 
BRANCH  10  11
ATOM     11  C9  MOL C   1      28.942  40.098  29.588 -0.54 +0.00    -0.005 C 
ATOM     12  C11 MOL C   1      29.498  40.386  31.026 -0.61 -0.00    +0.005 C 
ENDBRANCH  10  11
ENDBRANCH   9  10
ENDBRANCH   8   9
ENDBRANCH   1   8
TORSDOF 9
TER
ENDMDL
MODEL       67
USER    Run = 67
USER    DPF = lac1.dpf
USER  
USER    Estimated Free Energy of Binding    =   -1.17 kcal/mol  [=(1)+(2)+(3)-(4)]
USER    Estimated Inhibition Constant, Ki   =  139.82 mM (millimolar)  [Temperature = 298.15 K]
USER    
USER    (1) Final Intermolecular Energy     =   -3.70 kcal/mol
USER        vdW + Hbond + desolv Energy     =   -3.70 kcal/mol
USER        Electrostatic Energy            =   -0.00 kcal/mol
USER    (2) Final Total Internal Energy     =   -0.43 kcal/mol
USER    (3) Torsional Free Energy           =   +2.68 kcal/mol
USER    (4) Unbound System's Energy         =   -0.29 kcal/mol
USER    
USER    
USER    NEWDPF move PE_ligand.pdbqt
USER    NEWDPF about 3.037000 5.209000 3.149000
USER    NEWDPF tran0 26.555591 39.965978 27.046749
USER    NEWDPF quaternion0 -0.585839 -0.062179 -0.339478 0.733267
USER    NEWDPF axisangle0 -0.861604 -0.091448 -0.499276 85.678013
USER    NEWDPF quat0 -0.861604 -0.091448 -0.499276 85.678013
USER    NEWDPF dihe0 102.46 -14.54 122.35 74.88 152.32 -6.51 60.86 -90.63 -137.42 
USER  keepresnum = 1 
USER  
REMARK  9 active torsions:
REMARK  status: ('A' for Active; 'I' for Inactive)
REMARK    1  A    between atoms: C1_1  and  C2_2 
REMARK    2  A    between atoms: C1_1  and  C3_3 
REMARK    3  A    between atoms: C2_2  and  C4_4 
REMARK    4  A    between atoms: C3_3  and  C5_5 
REMARK    5  A    between atoms: C4_4  and  C6_6 
REMARK    6  A    between atoms: C5_5  and  C7_7 
REMARK    7  A    between atoms: C6_6  and  C8_8 
REMARK    8  A    between atoms: C7_7  and  C9_9 
REMARK    9  A    between atoms: C8_8  and  C10_10 
USER                              x       y       z     vdW  Elec       q    Type
USER                           _______ _______ _______ _____ _____    ______ ____
ROOT
ATOM      1  C1  MOL C   1      26.471  39.357  28.036 -0.51 -0.00    +0.000 C 
ENDROOT
BRANCH   1   2
ATOM      2  C2  MOL C   1      27.585  40.343  27.658 -0.63 -0.00    +0.000 C 
BRANCH   2   3
ATOM      3  C4  MOL C   1      28.917  39.526  27.612 -0.59 -0.00    +0.000 C 
BRANCH   3   4
ATOM      4  C6  MOL C   1      29.976  39.974  28.751 +0.17 -0.00    +0.000 C 
BRANCH   4   5
ATOM      5  C8  MOL C   1      29.551  39.773  30.188 -0.10 +0.00    -0.000 C 
BRANCH   5   6
ATOM      6  C10 MOL C   1      28.415  40.749  30.480 -0.41 +0.00    -0.005 C 
ATOM      7  C12 MOL C   1      27.504  40.419  31.624 -0.31 -0.00    +0.005 C 
ENDBRANCH   5   6
ENDBRANCH   4   5
ENDBRANCH   3   4
ENDBRANCH   2   3
ENDBRANCH   1   2
BRANCH   1   8
ATOM      8  C3  MOL C   1      26.578  38.198  26.966 -0.11 -0.00    +0.000 C 
BRANCH   8   9
ATOM      9  C5  MOL C   1      27.023  36.811  27.737 +0.15 -0.00    +0.000 C 
BRANCH   9  10
ATOM     10  C7  MOL C   1      28.463  36.794  28.370 -0.51 +0.00    -0.000 C 
BRANCH  10  11
ATOM     11  C9  MOL C   1      29.601  36.264  27.430 -0.51 +0.00    -0.005 C 
ATOM     12  C11 MOL C   1      30.944  36.356  28.235 -0.33 -0.00    +0.005 C 
ENDBRANCH  10  11
ENDBRANCH   9  10
ENDBRANCH   8   9
ENDBRANCH   1   8
TORSDOF 9
TER
ENDMDL
MODEL       68
USER    Run = 68
USER    DPF = lac1.dpf
USER  
USER    Estimated Free Energy of Binding    =   -1.91 kcal/mol  [=(1)+(2)+(3)-(4)]
USER    Estimated Inhibition Constant, Ki   =   39.91 mM (millimolar)  [Temperature = 298.15 K]
USER    
USER    (1) Final Intermolecular Energy     =   -4.64 kcal/mol
USER        vdW + Hbond + desolv Energy     =   -4.64 kcal/mol
USER        Electrostatic Energy            =   -0.00 kcal/mol
USER    (2) Final Total Internal Energy     =   -0.24 kcal/mol
USER    (3) Torsional Free Energy           =   +2.68 kcal/mol
USER    (4) Unbound System's Energy         =   -0.29 kcal/mol
USER    
USER    
USER    NEWDPF move PE_ligand.pdbqt
USER    NEWDPF about 3.037000 5.209000 3.149000
USER    NEWDPF tran0 28.233599 38.309517 26.796186
USER    NEWDPF quaternion0 0.232038 0.724747 0.480096 -0.436357
USER    NEWDPF axisangle0 0.257885 0.805477 0.533575 -128.256605
USER    NEWDPF quat0 0.257885 0.805477 0.533575 -128.256605
USER    NEWDPF dihe0 146.83 149.37 55.95 83.89 148.95 87.69 -173.15 60.92 70.64 
USER  keepresnum = 1 
USER  
REMARK  9 active torsions:
REMARK  status: ('A' for Active; 'I' for Inactive)
REMARK    1  A    between atoms: C1_1  and  C2_2 
REMARK    2  A    between atoms: C1_1  and  C3_3 
REMARK    3  A    between atoms: C2_2  and  C4_4 
REMARK    4  A    between atoms: C3_3  and  C5_5 
REMARK    5  A    between atoms: C4_4  and  C6_6 
REMARK    6  A    between atoms: C5_5  and  C7_7 
REMARK    7  A    between atoms: C6_6  and  C8_8 
REMARK    8  A    between atoms: C7_7  and  C9_9 
REMARK    9  A    between atoms: C8_8  and  C10_10 
USER                              x       y       z     vdW  Elec       q    Type
USER                           _______ _______ _______ _____ _____    ______ ____
ROOT
ATOM      1  C1  MOL C   1      28.866  38.980  27.509 -0.56 -0.00    +0.000 C 
ENDROOT
BRANCH   1   2
ATOM      2  C2  MOL C   1      27.941  39.457  26.380 -0.54 -0.00    +0.000 C 
BRANCH   2   3
ATOM      3  C4  MOL C   1      26.524  39.659  27.010 -0.51 -0.00    +0.000 C 
BRANCH   3   4
ATOM      4  C6  MOL C   1      26.537  39.605  28.628 -0.48 -0.00    +0.000 C 
BRANCH   4   5
ATOM      5  C8  MOL C   1      27.398  40.626  29.334 -0.21 +0.00    -0.000 C 
BRANCH   5   6
ATOM      6  C10 MOL C   1      28.176  39.904  30.429 -0.51 +0.00    -0.005 C 
ATOM      7  C12 MOL C   1      28.684  40.734  31.570 -0.76 -0.00    +0.005 C 
ENDBRANCH   5   6
ENDBRANCH   4   5
ENDBRANCH   3   4
ENDBRANCH   2   3
ENDBRANCH   1   2
BRANCH   1   8
ATOM      8  C3  MOL C   1      29.997  38.149  26.781 +0.16 -0.00    +0.000 C 
BRANCH   8   9
ATOM      9  C5  MOL C   1      29.567  36.558  26.788 -0.48 -0.00    +0.000 C 
BRANCH   9  10
ATOM     10  C7  MOL C   1      28.023  36.251  26.817 -0.24 +0.00    -0.000 C 
BRANCH  10  11
ATOM     11  C9  MOL C   1      27.354  36.320  28.234 -0.37 +0.00    -0.005 C 
ATOM     12  C11 MOL C   1      28.510  36.250  29.292 -0.14 -0.00    +0.005 C 
ENDBRANCH  10  11
ENDBRANCH   9  10
ENDBRANCH   8   9
ENDBRANCH   1   8
TORSDOF 9
TER
ENDMDL
MODEL       69
USER    Run = 69
USER    DPF = lac1.dpf
USER  
USER    Estimated Free Energy of Binding    =   -1.29 kcal/mol  [=(1)+(2)+(3)-(4)]
USER    Estimated Inhibition Constant, Ki   =  112.82 mM (millimolar)  [Temperature = 298.15 K]
USER    
USER    (1) Final Intermolecular Energy     =   -3.99 kcal/mol
USER        vdW + Hbond + desolv Energy     =   -3.99 kcal/mol
USER        Electrostatic Energy            =   -0.00 kcal/mol
USER    (2) Final Total Internal Energy     =   -0.28 kcal/mol
USER    (3) Torsional Free Energy           =   +2.68 kcal/mol
USER    (4) Unbound System's Energy         =   -0.29 kcal/mol
USER    
USER    
USER    NEWDPF move PE_ligand.pdbqt
USER    NEWDPF about 3.037000 5.209000 3.149000
USER    NEWDPF tran0 26.250000 38.558297 27.470023
USER    NEWDPF quaternion0 0.794822 -0.308678 0.456951 0.253323
USER    NEWDPF axisangle0 0.821621 -0.319086 0.472358 150.651543
USER    NEWDPF quat0 0.821621 -0.319086 0.472358 150.651543
USER    NEWDPF dihe0 179.90 -3.19 180.00 50.88 164.01 166.44 -140.19 105.31 146.53 
USER  keepresnum = 1 
USER  
REMARK  9 active torsions:
REMARK  status: ('A' for Active; 'I' for Inactive)
REMARK    1  A    between atoms: C1_1  and  C2_2 
REMARK    2  A    between atoms: C1_1  and  C3_3 
REMARK    3  A    between atoms: C2_2  and  C4_4 
REMARK    4  A    between atoms: C3_3  and  C5_5 
REMARK    5  A    between atoms: C4_4  and  C6_6 
REMARK    6  A    between atoms: C5_5  and  C7_7 
REMARK    7  A    between atoms: C6_6  and  C8_8 
REMARK    8  A    between atoms: C7_7  and  C9_9 
REMARK    9  A    between atoms: C8_8  and  C10_10 
USER                              x       y       z     vdW  Elec       q    Type
USER                           _______ _______ _______ _____ _____    ______ ____
ROOT
ATOM      1  C1  MOL C   1      26.650  38.131  26.463 +0.15 -0.00    +0.000 C 
ENDROOT
BRANCH   1   2
ATOM      2  C2  MOL C   1      27.015  37.648  27.874 -0.36 -0.00    +0.000 C 
BRANCH   2   3
ATOM      3  C4  MOL C   1      27.727  36.266  27.709 -0.39 -0.00    +0.000 C 
BRANCH   3   4
ATOM      4  C6  MOL C   1      28.820  36.254  26.515 -0.43 -0.00    +0.000 C 
BRANCH   4   5
ATOM      5  C8  MOL C   1      30.125  36.969  26.782 -0.37 +0.00    -0.000 C 
BRANCH   5   6
ATOM      6  C10 MOL C   1      29.964  37.769  28.070 -0.43 +0.00    -0.005 C 
ATOM      7  C12 MOL C   1      30.249  39.239  28.004 -0.04 -0.00    +0.005 C 
ENDBRANCH   5   6
ENDBRANCH   4   5
ENDBRANCH   3   4
ENDBRANCH   2   3
ENDBRANCH   1   2
BRANCH   1   8
ATOM      8  C3  MOL C   1      27.174  39.621  26.397 -0.53 -0.00    +0.000 C 
BRANCH   8   9
ATOM      9  C5  MOL C   1      26.635  40.427  27.730 -0.54 -0.00    +0.000 C 
BRANCH   9  10
ATOM     10  C7  MOL C   1      27.708  40.746  28.836 +0.01 +0.00    -0.000 C 
BRANCH  10  11
ATOM     11  C9  MOL C   1      27.487  40.022  30.210 -0.32 +0.00    -0.005 C 
ATOM     12  C11 MOL C   1      28.483  40.667  31.235 -0.74 -0.00    +0.005 C 
ENDBRANCH  10  11
ENDBRANCH   9  10
ENDBRANCH   8   9
ENDBRANCH   1   8
TORSDOF 9
TER
ENDMDL
MODEL       70
USER    Run = 70
USER    DPF = lac1.dpf
USER  
USER    Estimated Free Energy of Binding    =   -0.84 kcal/mol  [=(1)+(2)+(3)-(4)]
USER    Estimated Inhibition Constant, Ki   =  242.02 mM (millimolar)  [Temperature = 298.15 K]
USER    
USER    (1) Final Intermolecular Energy     =   -5.21 kcal/mol
USER        vdW + Hbond + desolv Energy     =   -5.21 kcal/mol
USER        Electrostatic Energy            =   -0.00 kcal/mol
USER    (2) Final Total Internal Energy     =   +1.40 kcal/mol
USER    (3) Torsional Free Energy           =   +2.68 kcal/mol
USER    (4) Unbound System's Energy         =   -0.29 kcal/mol
USER    
USER    
USER    NEWDPF move PE_ligand.pdbqt
USER    NEWDPF about 3.037000 5.209000 3.149000
USER    NEWDPF tran0 27.522146 38.680083 27.148606
USER    NEWDPF quaternion0 -0.149499 0.733648 -0.537321 0.388197
USER    NEWDPF axisangle0 -0.162221 0.796079 -0.583046 134.315244
USER    NEWDPF quat0 -0.162221 0.796079 -0.583046 134.315244
USER    NEWDPF dihe0 164.88 147.00 164.70 122.62 10.69 -35.28 105.88 168.80 39.22 
USER  keepresnum = 1 
USER  
REMARK  9 active torsions:
REMARK  status: ('A' for Active; 'I' for Inactive)
REMARK    1  A    between atoms: C1_1  and  C2_2 
REMARK    2  A    between atoms: C1_1  and  C3_3 
REMARK    3  A    between atoms: C2_2  and  C4_4 
REMARK    4  A    between atoms: C3_3  and  C5_5 
REMARK    5  A    between atoms: C4_4  and  C6_6 
REMARK    6  A    between atoms: C5_5  and  C7_7 
REMARK    7  A    between atoms: C6_6  and  C8_8 
REMARK    8  A    between atoms: C7_7  and  C9_9 
REMARK    9  A    between atoms: C8_8  and  C10_10 
USER                              x       y       z     vdW  Elec       q    Type
USER                           _______ _______ _______ _____ _____    ______ ____
ROOT
ATOM      1  C1  MOL C   1      26.725  38.303  26.387 -0.08 -0.00    +0.000 C 
ENDROOT
BRANCH   1   2
ATOM      2  C2  MOL C   1      26.497  38.624  27.872 -0.44 -0.00    +0.000 C 
BRANCH   2   3
ATOM      3  C4  MOL C   1      26.899  40.122  28.078 -0.57 -0.00    +0.000 C 
BRANCH   3   4
ATOM      4  C6  MOL C   1      28.492  40.375  27.940 -0.52 -0.00    +0.000 C 
BRANCH   4   5
ATOM      5  C8  MOL C   1      29.343  40.006  29.134 -0.51 +0.00    -0.000 C 
BRANCH   5   6
ATOM      6  C10 MOL C   1      28.466  40.092  30.378 -0.63 +0.00    -0.005 C 
ATOM      7  C12 MOL C   1      29.081  40.683  31.611 -0.71 -0.00    +0.005 C 
ENDBRANCH   5   6
ENDBRANCH   4   5
ENDBRANCH   3   4
ENDBRANCH   2   3
ENDBRANCH   1   2
BRANCH   1   8
ATOM      8  C3  MOL C   1      27.748  37.098  26.386 -0.15 -0.00    +0.000 C 
BRANCH   8   9
ATOM      9  C5  MOL C   1      27.830  36.478  27.911 -0.46 -0.00    +0.000 C 
BRANCH   9  10
ATOM     10  C7  MOL C   1      28.991  37.021  28.825 -0.37 +0.00    -0.000 C 
BRANCH  10  11
ATOM     11  C9  MOL C   1      30.386  37.161  28.122 -0.27 +0.00    -0.005 C 
ATOM     12  C11 MOL C   1      30.349  36.252  26.844 -0.50 -0.00    +0.005 C 
ENDBRANCH  10  11
ENDBRANCH   9  10
ENDBRANCH   8   9
ENDBRANCH   1   8
TORSDOF 9
TER
ENDMDL
MODEL       71
USER    Run = 71
USER    DPF = lac1.dpf
USER  
USER    Estimated Free Energy of Binding    =   +0.71 kcal/mol  [=(1)+(2)+(3)-(4)]
USER    
USER    (1) Final Intermolecular Energy     =   -2.50 kcal/mol
USER        vdW + Hbond + desolv Energy     =   -2.50 kcal/mol
USER        Electrostatic Energy            =   +0.00 kcal/mol
USER    (2) Final Total Internal Energy     =   +0.23 kcal/mol
USER    (3) Torsional Free Energy           =   +2.68 kcal/mol
USER    (4) Unbound System's Energy         =   -0.29 kcal/mol
USER    
USER    
USER    NEWDPF move PE_ligand.pdbqt
USER    NEWDPF about 3.037000 5.209000 3.149000
USER    NEWDPF tran0 29.172640 39.759616 27.809504
USER    NEWDPF quaternion0 0.264951 0.413151 -0.518840 -0.699937
USER    NEWDPF axisangle0 0.370974 0.578477 -0.726459 -91.156071
USER    NEWDPF quat0 0.370974 0.578477 -0.726459 -91.156071
USER    NEWDPF dihe0 -100.89 -128.63 -64.66 54.46 47.16 162.23 -83.22 65.62 179.39 
USER  keepresnum = 1 
USER  
REMARK  9 active torsions:
REMARK  status: ('A' for Active; 'I' for Inactive)
REMARK    1  A    between atoms: C1_1  and  C2_2 
REMARK    2  A    between atoms: C1_1  and  C3_3 
REMARK    3  A    between atoms: C2_2  and  C4_4 
REMARK    4  A    between atoms: C3_3  and  C5_5 
REMARK    5  A    between atoms: C4_4  and  C6_6 
REMARK    6  A    between atoms: C5_5  and  C7_7 
REMARK    7  A    between atoms: C6_6  and  C8_8 
REMARK    8  A    between atoms: C7_7  and  C9_9 
REMARK    9  A    between atoms: C8_8  and  C10_10 
USER                              x       y       z     vdW  Elec       q    Type
USER                           _______ _______ _______ _____ _____    ______ ____
ROOT
ATOM      1  C1  MOL C   1      30.219  39.490  28.245 -0.04 -0.00    +0.000 C 
ENDROOT
BRANCH   1   2
ATOM      2  C2  MOL C   1      29.568  38.898  26.986 +0.04 -0.00    +0.000 C 
BRANCH   2   3
ATOM      3  C4  MOL C   1      30.314  37.559  26.678 +0.38 -0.00    +0.000 C 
BRANCH   3   4
ATOM      4  C6  MOL C   1      29.488  36.250  27.152 -0.49 -0.00    +0.000 C 
BRANCH   4   5
ATOM      5  C8  MOL C   1      28.811  36.327  28.502 -0.55 +0.00    -0.000 C 
BRANCH   5   6
ATOM      6  C10 MOL C   1      27.317  36.522  28.265 -0.32 +0.00    -0.005 C 
ATOM      7  C12 MOL C   1      26.913  37.538  27.239 +0.25 -0.00    +0.005 C 
ENDBRANCH   5   6
ENDBRANCH   4   5
ENDBRANCH   3   4
ENDBRANCH   2   3
ENDBRANCH   1   2
BRANCH   1   8
ATOM      8  C3  MOL C   1      29.268  39.058  29.432 -0.26 -0.00    +0.000 C 
BRANCH   8   9
ATOM      9  C5  MOL C   1      28.113  40.216  29.628 -0.57 -0.00    +0.000 C 
BRANCH   9  10
ATOM     10  C7  MOL C   1      26.686  39.885  29.052 -0.25 +0.00    -0.000 C 
BRANCH  10  11
ATOM     11  C9  MOL C   1      26.253  40.738  27.810 -0.21 +0.00    -0.005 C 
ATOM     12  C11 MOL C   1      27.230  40.373  26.638 -0.47 -0.00    +0.005 C 
ENDBRANCH  10  11
ENDBRANCH   9  10
ENDBRANCH   8   9
ENDBRANCH   1   8
TORSDOF 9
TER
ENDMDL
MODEL       72
USER    Run = 72
USER    DPF = lac1.dpf
USER  
USER    Estimated Free Energy of Binding    =   -0.72 kcal/mol  [=(1)+(2)+(3)-(4)]
USER    Estimated Inhibition Constant, Ki   =  298.69 mM (millimolar)  [Temperature = 298.15 K]
USER    
USER    (1) Final Intermolecular Energy     =   -4.87 kcal/mol
USER        vdW + Hbond + desolv Energy     =   -4.87 kcal/mol
USER        Electrostatic Energy            =   -0.00 kcal/mol
USER    (2) Final Total Internal Energy     =   +1.19 kcal/mol
USER    (3) Torsional Free Energy           =   +2.68 kcal/mol
USER    (4) Unbound System's Energy         =   -0.29 kcal/mol
USER    
USER    
USER    NEWDPF move PE_ligand.pdbqt
USER    NEWDPF about 3.037000 5.209000 3.149000
USER    NEWDPF tran0 28.311183 38.969150 27.263912
USER    NEWDPF quaternion0 0.672233 0.251428 -0.009951 0.696267
USER    NEWDPF axisangle0 0.936541 0.350284 -0.013863 91.743480
USER    NEWDPF quat0 0.936541 0.350284 -0.013863 91.743480
USER    NEWDPF dihe0 -108.65 -93.81 165.47 -89.95 21.69 -34.27 173.16 -179.58 35.94 
USER  keepresnum = 1 
USER  
REMARK  9 active torsions:
REMARK  status: ('A' for Active; 'I' for Inactive)
REMARK    1  A    between atoms: C1_1  and  C2_2 
REMARK    2  A    between atoms: C1_1  and  C3_3 
REMARK    3  A    between atoms: C2_2  and  C4_4 
REMARK    4  A    between atoms: C3_3  and  C5_5 
REMARK    5  A    between atoms: C4_4  and  C6_6 
REMARK    6  A    between atoms: C5_5  and  C7_7 
REMARK    7  A    between atoms: C6_6  and  C8_8 
REMARK    8  A    between atoms: C7_7  and  C9_9 
REMARK    9  A    between atoms: C8_8  and  C10_10 
USER                              x       y       z     vdW  Elec       q    Type
USER                           _______ _______ _______ _____ _____    ______ ____
ROOT
ATOM      1  C1  MOL C   1      28.224  39.722  26.379 -0.54 -0.00    +0.000 C 
ENDROOT
BRANCH   1   2
ATOM      2  C2  MOL C   1      29.256  39.756  27.516 -0.32 -0.00    +0.000 C 
BRANCH   2   3
ATOM      3  C4  MOL C   1      29.976  38.368  27.517 -0.36 -0.00    +0.000 C 
BRANCH   3   4
ATOM      4  C6  MOL C   1      29.390  37.350  26.403 -0.43 -0.00    +0.000 C 
BRANCH   4   5
ATOM      5  C8  MOL C   1      27.978  36.851  26.615 -0.26 +0.00    -0.000 C 
BRANCH   5   6
ATOM      6  C10 MOL C   1      27.678  36.921  28.109 -0.42 +0.00    -0.005 C 
ATOM      7  C12 MOL C   1      28.648  36.250  29.035 -0.43 -0.00    +0.005 C 
ENDBRANCH   5   6
ENDBRANCH   4   5
ENDBRANCH   3   4
ENDBRANCH   2   3
ENDBRANCH   1   2
BRANCH   1   8
ATOM      8  C3  MOL C   1      26.829  39.922  27.094 -0.55 -0.00    +0.000 C 
BRANCH   8   9
ATOM      9  C5  MOL C   1      27.073  40.733  28.507 -0.32 -0.00    +0.000 C 
BRANCH   9  10
ATOM     10  C7  MOL C   1      27.254  39.851  29.798 -0.07 +0.00    -0.000 C 
BRANCH  10  11
ATOM     11  C9  MOL C   1      28.726  39.733  30.326 -0.43 +0.00    -0.005 C 
ATOM     12  C11 MOL C   1      28.870  40.747  31.515 -0.75 -0.00    +0.005 C 
ENDBRANCH  10  11
ENDBRANCH   9  10
ENDBRANCH   8   9
ENDBRANCH   1   8
TORSDOF 9
TER
ENDMDL
MODEL       73
USER    Run = 73
USER    DPF = lac1.dpf
USER  
USER    Estimated Free Energy of Binding    =   -1.93 kcal/mol  [=(1)+(2)+(3)-(4)]
USER    Estimated Inhibition Constant, Ki   =   38.17 mM (millimolar)  [Temperature = 298.15 K]
USER    
USER    (1) Final Intermolecular Energy     =   -4.46 kcal/mol
USER        vdW + Hbond + desolv Energy     =   -4.46 kcal/mol
USER        Electrostatic Energy            =   +0.00 kcal/mol
USER    (2) Final Total Internal Energy     =   -0.45 kcal/mol
USER    (3) Torsional Free Energy           =   +2.68 kcal/mol
USER    (4) Unbound System's Energy         =   -0.29 kcal/mol
USER    
USER    
USER    NEWDPF move PE_ligand.pdbqt
USER    NEWDPF about 3.037000 5.209000 3.149000
USER    NEWDPF tran0 27.509693 39.683553 27.519761
USER    NEWDPF quaternion0 0.393733 0.789707 -0.338165 0.327080
USER    NEWDPF axisangle0 0.416651 0.835672 -0.357847 141.816715
USER    NEWDPF quat0 0.416651 0.835672 -0.357847 141.816715
USER    NEWDPF dihe0 -179.11 106.13 -116.20 51.26 14.20 -170.06 -65.68 22.02 -60.40 
USER  keepresnum = 1 
USER  
REMARK  9 active torsions:
REMARK  status: ('A' for Active; 'I' for Inactive)
REMARK    1  A    between atoms: C1_1  and  C2_2 
REMARK    2  A    between atoms: C1_1  and  C3_3 
REMARK    3  A    between atoms: C2_2  and  C4_4 
REMARK    4  A    between atoms: C3_3  and  C5_5 
REMARK    5  A    between atoms: C4_4  and  C6_6 
REMARK    6  A    between atoms: C5_5  and  C7_7 
REMARK    7  A    between atoms: C6_6  and  C8_8 
REMARK    8  A    between atoms: C7_7  and  C9_9 
REMARK    9  A    between atoms: C8_8  and  C10_10 
USER                              x       y       z     vdW  Elec       q    Type
USER                           _______ _______ _______ _____ _____    ______ ____
ROOT
ATOM      1  C1  MOL C   1      27.319  39.786  26.375 -0.55 -0.00    +0.000 C 
ENDROOT
BRANCH   1   2
ATOM      2  C2  MOL C   1      26.704  40.646  27.489 -0.51 -0.00    +0.000 C 
BRANCH   2   3
ATOM      3  C4  MOL C   1      26.341  39.676  28.661 -0.39 -0.00    +0.000 C 
BRANCH   3   4
ATOM      4  C6  MOL C   1      27.127  40.019  30.034 +0.05 -0.00    +0.000 C 
BRANCH   4   5
ATOM      5  C8  MOL C   1      28.587  39.631  30.095 -0.52 +0.00    -0.000 C 
BRANCH   5   6
ATOM      6  C10 MOL C   1      29.280  40.228  28.875 -0.13 +0.00    -0.005 C 
ATOM      7  C12 MOL C   1      30.010  39.282  27.970 -0.34 -0.00    +0.005 C 
ENDBRANCH   5   6
ENDBRANCH   4   5
ENDBRANCH   3   4
ENDBRANCH   2   3
ENDBRANCH   1   2
BRANCH   1   8
ATOM      8  C3  MOL C   1      26.782  38.325  26.649 -0.20 -0.00    +0.000 C 
BRANCH   8   9
ATOM      9  C5  MOL C   1      28.047  37.274  26.555 -0.35 -0.00    +0.000 C 
BRANCH   9  10
ATOM     10  C7  MOL C   1      28.206  36.261  27.750 -0.48 +0.00    -0.000 C 
BRANCH  10  11
ATOM     11  C9  MOL C   1      29.497  36.452  28.620 -0.53 +0.00    -0.005 C 
ATOM     12  C11 MOL C   1      30.727  36.256  27.666 -0.51 -0.00    +0.005 C 
ENDBRANCH  10  11
ENDBRANCH   9  10
ENDBRANCH   8   9
ENDBRANCH   1   8
TORSDOF 9
TER
ENDMDL
MODEL       74
USER    Run = 74
USER    DPF = lac1.dpf
USER  
USER    Estimated Free Energy of Binding    =   +1.46 kcal/mol  [=(1)+(2)+(3)-(4)]
USER    
USER    (1) Final Intermolecular Energy     =   -3.29 kcal/mol
USER        vdW + Hbond + desolv Energy     =   -3.28 kcal/mol
USER        Electrostatic Energy            =   -0.00 kcal/mol
USER    (2) Final Total Internal Energy     =   +1.77 kcal/mol
USER    (3) Torsional Free Energy           =   +2.68 kcal/mol
USER    (4) Unbound System's Energy         =   -0.29 kcal/mol
USER    
USER    
USER    NEWDPF move PE_ligand.pdbqt
USER    NEWDPF about 3.037000 5.209000 3.149000
USER    NEWDPF tran0 27.857573 39.897500 27.948708
USER    NEWDPF quaternion0 0.289267 -0.874381 0.349551 0.172039
USER    NEWDPF axisangle0 0.293645 -0.887615 0.354841 160.187166
USER    NEWDPF quat0 0.293645 -0.887615 0.354841 160.187166
USER    NEWDPF dihe0 179.54 46.08 75.13 72.71 -173.27 98.38 -133.26 88.61 -156.49 
USER  keepresnum = 1 
USER  
REMARK  9 active torsions:
REMARK  status: ('A' for Active; 'I' for Inactive)
REMARK    1  A    between atoms: C1_1  and  C2_2 
REMARK    2  A    between atoms: C1_1  and  C3_3 
REMARK    3  A    between atoms: C2_2  and  C4_4 
REMARK    4  A    between atoms: C3_3  and  C5_5 
REMARK    5  A    between atoms: C4_4  and  C6_6 
REMARK    6  A    between atoms: C5_5  and  C7_7 
REMARK    7  A    between atoms: C6_6  and  C8_8 
REMARK    8  A    between atoms: C7_7  and  C9_9 
REMARK    9  A    between atoms: C8_8  and  C10_10 
USER                              x       y       z     vdW  Elec       q    Type
USER                           _______ _______ _______ _____ _____    ______ ____
ROOT
ATOM      1  C1  MOL C   1      27.986  40.093  26.807 -0.54 -0.00    +0.000 C 
ENDROOT
BRANCH   1   2
ATOM      2  C2  MOL C   1      27.076  39.044  27.463 -0.48 -0.00    +0.000 C 
BRANCH   2   3
ATOM      3  C4  MOL C   1      27.235  37.727  26.635 -0.04 -0.00    +0.000 C 
BRANCH   3   4
ATOM      4  C6  MOL C   1      28.780  37.292  26.428 -0.42 -0.00    +0.000 C 
BRANCH   4   5
ATOM      5  C8  MOL C   1      29.327  36.255  27.383 -0.50 +0.00    -0.000 C 
BRANCH   5   6
ATOM      6  C10 MOL C   1      30.431  36.913  28.204 -0.32 +0.00    -0.005 C 
ATOM      7  C12 MOL C   1      31.777  36.252  28.197 +0.25 -0.00    +0.005 C 
ENDBRANCH   5   6
ENDBRANCH   4   5
ENDBRANCH   3   4
ENDBRANCH   2   3
ENDBRANCH   1   2
BRANCH   1   8
ATOM      8  C3  MOL C   1      29.452  39.667  27.215 +0.20 -0.00    +0.000 C 
BRANCH   8   9
ATOM      9  C5  MOL C   1      29.619  39.850  28.844 -0.40 -0.00    +0.000 C 
BRANCH   9  10
ATOM     10  C7  MOL C   1      28.377  39.450  29.724 -0.49 +0.00    -0.000 C 
BRANCH  10  11
ATOM     11  C9  MOL C   1      27.390  40.622  30.059 -0.09 +0.00    -0.005 C 
ATOM     12  C11 MOL C   1      27.337  40.746  31.622 -0.46 -0.00    +0.005 C 
ENDBRANCH  10  11
ENDBRANCH   9  10
ENDBRANCH   8   9
ENDBRANCH   1   8
TORSDOF 9
TER
ENDMDL
MODEL       75
USER    Run = 75
USER    DPF = lac1.dpf
USER  
USER    Estimated Free Energy of Binding    =   +2.61 kcal/mol  [=(1)+(2)+(3)-(4)]
USER    
USER    (1) Final Intermolecular Energy     =   -1.82 kcal/mol
USER        vdW + Hbond + desolv Energy     =   -1.82 kcal/mol
USER        Electrostatic Energy            =   -0.00 kcal/mol
USER    (2) Final Total Internal Energy     =   +1.46 kcal/mol
USER    (3) Torsional Free Energy           =   +2.68 kcal/mol
USER    (4) Unbound System's Energy         =   -0.29 kcal/mol
USER    
USER    
USER    NEWDPF move PE_ligand.pdbqt
USER    NEWDPF about 3.037000 5.209000 3.149000
USER    NEWDPF tran0 27.700545 39.699471 28.326521
USER    NEWDPF quaternion0 0.144855 0.223247 0.910382 -0.316832
USER    NEWDPF axisangle0 0.152723 0.235373 0.959831 -143.057088
USER    NEWDPF quat0 0.152723 0.235373 0.959831 -143.057088
USER    NEWDPF dihe0 162.16 25.49 -176.78 -171.30 179.72 -38.42 125.88 81.11 28.58 
USER  keepresnum = 1 
USER  
REMARK  9 active torsions:
REMARK  status: ('A' for Active; 'I' for Inactive)
REMARK    1  A    between atoms: C1_1  and  C2_2 
REMARK    2  A    between atoms: C1_1  and  C3_3 
REMARK    3  A    between atoms: C2_2  and  C4_4 
REMARK    4  A    between atoms: C3_3  and  C5_5 
REMARK    5  A    between atoms: C4_4  and  C6_6 
REMARK    6  A    between atoms: C5_5  and  C7_7 
REMARK    7  A    between atoms: C6_6  and  C8_8 
REMARK    8  A    between atoms: C7_7  and  C9_9 
REMARK    9  A    between atoms: C8_8  and  C10_10 
USER                              x       y       z     vdW  Elec       q    Type
USER                           _______ _______ _______ _____ _____    ______ ____
ROOT
ATOM      1  C1  MOL C   1      27.641  39.255  29.402 -0.09 -0.00    +0.000 C 
ENDROOT
BRANCH   1   2
ATOM      2  C2  MOL C   1      26.882  40.480  28.872 +0.01 -0.00    +0.000 C 
BRANCH   2   3
ATOM      3  C4  MOL C   1      26.250  40.064  27.503 -0.53 -0.00    +0.000 C 
BRANCH   3   4
ATOM      4  C6  MOL C   1      27.311  39.358  26.504 -0.50 -0.00    +0.000 C 
BRANCH   4   5
ATOM      5  C8  MOL C   1      27.431  37.854  26.594 -0.28 +0.00    -0.000 C 
BRANCH   5   6
ATOM      6  C10 MOL C   1      26.608  37.391  27.791 +0.06 +0.00    -0.005 C 
ATOM      7  C12 MOL C   1      27.163  36.265  28.611 +0.03 -0.00    +0.005 C 
ENDBRANCH   5   6
ENDBRANCH   4   5
ENDBRANCH   3   4
ENDBRANCH   2   3
ENDBRANCH   1   2
BRANCH   1   8
ATOM      8  C3  MOL C   1      29.168  39.658  29.316 -0.60 -0.00    +0.000 C 
BRANCH   8   9
ATOM      9  C5  MOL C   1      29.634  39.620  27.736 -0.27 -0.00    +0.000 C 
BRANCH   9  10
ATOM     10  C7  MOL C   1      30.374  38.317  27.256 +0.96 +0.00    -0.000 C 
BRANCH  10  11
ATOM     11  C9  MOL C   1      30.092  37.034  28.112 -0.47 +0.00    -0.005 C 
ATOM     12  C11 MOL C   1      31.446  36.250  28.225 -0.13 -0.00    +0.005 C 
ENDBRANCH  10  11
ENDBRANCH   9  10
ENDBRANCH   8   9
ENDBRANCH   1   8
TORSDOF 9
TER
ENDMDL
MODEL       76
USER    Run = 76
USER    DPF = lac1.dpf
USER  
USER    Estimated Free Energy of Binding    =   -0.60 kcal/mol  [=(1)+(2)+(3)-(4)]
USER    Estimated Inhibition Constant, Ki   =  360.86 mM (millimolar)  [Temperature = 298.15 K]
USER    
USER    (1) Final Intermolecular Energy     =   -4.86 kcal/mol
USER        vdW + Hbond + desolv Energy     =   -4.86 kcal/mol
USER        Electrostatic Energy            =   -0.00 kcal/mol
USER    (2) Final Total Internal Energy     =   +1.29 kcal/mol
USER    (3) Torsional Free Energy           =   +2.68 kcal/mol
USER    (4) Unbound System's Energy         =   -0.29 kcal/mol
USER    
USER    
USER    NEWDPF move PE_ligand.pdbqt
USER    NEWDPF about 3.037000 5.209000 3.149000
USER    NEWDPF tran0 28.035225 39.308530 27.558026
USER    NEWDPF quaternion0 -0.075157 0.793672 -0.238025 -0.554780
USER    NEWDPF axisangle0 -0.090334 0.953936 -0.286088 -112.608858
USER    NEWDPF quat0 -0.090334 0.953936 -0.286088 -112.608858
USER    NEWDPF dihe0 102.92 120.08 -62.92 136.06 -8.18 -162.75 -180.00 130.37 17.17 
USER  keepresnum = 1 
USER  
REMARK  9 active torsions:
REMARK  status: ('A' for Active; 'I' for Inactive)
REMARK    1  A    between atoms: C1_1  and  C2_2 
REMARK    2  A    between atoms: C1_1  and  C3_3 
REMARK    3  A    between atoms: C2_2  and  C4_4 
REMARK    4  A    between atoms: C3_3  and  C5_5 
REMARK    5  A    between atoms: C4_4  and  C6_6 
REMARK    6  A    between atoms: C5_5  and  C7_7 
REMARK    7  A    between atoms: C6_6  and  C8_8 
REMARK    8  A    between atoms: C7_7  and  C9_9 
REMARK    9  A    between atoms: C8_8  and  C10_10 
USER                              x       y       z     vdW  Elec       q    Type
USER                           _______ _______ _______ _____ _____    ______ ____
ROOT
ATOM      1  C1  MOL C   1      28.898  39.895  27.040 -0.43 -0.00    +0.000 C 
ENDROOT
BRANCH   1   2
ATOM      2  C2  MOL C   1      27.963  38.868  26.385 -0.48 -0.00    +0.000 C 
BRANCH   2   3
ATOM      3  C4  MOL C   1      26.552  39.065  27.029 -0.44 -0.00    +0.000 C 
BRANCH   3   4
ATOM      4  C6  MOL C   1      26.492  40.318  28.052 -0.47 -0.00    +0.000 C 
BRANCH   4   5
ATOM      5  C8  MOL C   1      26.643  40.002  29.522 +0.42 +0.00    -0.000 C 
BRANCH   5   6
ATOM      6  C10 MOL C   1      28.033  40.455  29.957 -0.46 +0.00    -0.005 C 
ATOM      7  C12 MOL C   1      28.245  40.707  31.419 -0.75 -0.00    +0.005 C 
ENDBRANCH   5   6
ENDBRANCH   4   5
ENDBRANCH   3   4
ENDBRANCH   2   3
ENDBRANCH   1   2
BRANCH   1   8
ATOM      8  C3  MOL C   1      29.693  39.077  28.135 -0.53 -0.00    +0.000 C 
BRANCH   8   9
ATOM      9  C5  MOL C   1      28.791  37.768  28.570 -0.49 -0.00    +0.000 C 
BRANCH   9  10
ATOM     10  C7  MOL C   1      29.567  36.409  28.741 -0.47 +0.00    -0.000 C 
BRANCH  10  11
ATOM     11  C9  MOL C   1      30.842  36.250  27.841 -0.50 +0.00    -0.005 C 
ATOM     12  C11 MOL C   1      30.439  36.694  26.391 -0.26 -0.00    +0.005 C 
ENDBRANCH  10  11
ENDBRANCH   9  10
ENDBRANCH   8   9
ENDBRANCH   1   8
TORSDOF 9
TER
ENDMDL
MODEL       77
USER    Run = 77
USER    DPF = lac1.dpf
USER  
USER    Estimated Free Energy of Binding    =   +0.13 kcal/mol  [=(1)+(2)+(3)-(4)]
USER    
USER    (1) Final Intermolecular Energy     =   -3.98 kcal/mol
USER        vdW + Hbond + desolv Energy     =   -3.98 kcal/mol
USER        Electrostatic Energy            =   -0.00 kcal/mol
USER    (2) Final Total Internal Energy     =   +1.14 kcal/mol
USER    (3) Torsional Free Energy           =   +2.68 kcal/mol
USER    (4) Unbound System's Energy         =   -0.29 kcal/mol
USER    
USER    
USER    NEWDPF move PE_ligand.pdbqt
USER    NEWDPF about 3.037000 5.209000 3.149000
USER    NEWDPF tran0 26.881664 39.256901 27.439760
USER    NEWDPF quaternion0 0.520713 -0.802224 0.169409 0.237896
USER    NEWDPF axisangle0 0.536104 -0.825936 0.174417 152.475203
USER    NEWDPF quat0 0.536104 -0.825936 0.174417 152.475203
USER    NEWDPF dihe0 -179.99 157.26 130.80 -63.90 4.48 -67.03 -169.95 -179.83 -4.47 
USER  keepresnum = 1 
USER  
REMARK  9 active torsions:
REMARK  status: ('A' for Active; 'I' for Inactive)
REMARK    1  A    between atoms: C1_1  and  C2_2 
REMARK    2  A    between atoms: C1_1  and  C3_3 
REMARK    3  A    between atoms: C2_2  and  C4_4 
REMARK    4  A    between atoms: C3_3  and  C5_5 
REMARK    5  A    between atoms: C4_4  and  C6_6 
REMARK    6  A    between atoms: C5_5  and  C7_7 
REMARK    7  A    between atoms: C6_6  and  C8_8 
REMARK    8  A    between atoms: C7_7  and  C9_9 
REMARK    9  A    between atoms: C8_8  and  C10_10 
USER                              x       y       z     vdW  Elec       q    Type
USER                           _______ _______ _______ _____ _____    ______ ____
ROOT
ATOM      1  C1  MOL C   1      26.681  39.690  26.377 -0.50 -0.00    +0.000 C 
ENDROOT
BRANCH   1   2
ATOM      2  C2  MOL C   1      26.576  38.218  26.804 -0.04 -0.00    +0.000 C 
BRANCH   2   3
ATOM      3  C4  MOL C   1      26.557  38.201  28.368 +0.07 -0.00    +0.000 C 
BRANCH   3   4
ATOM      4  C6  MOL C   1      26.269  39.657  29.014 -0.04 -0.00    +0.000 C 
BRANCH   4   5
ATOM      5  C8  MOL C   1      27.463  40.567  29.195 -0.29 +0.00    -0.000 C 
BRANCH   5   6
ATOM      6  C10 MOL C   1      28.451  39.863  30.119 -0.59 +0.00    -0.005 C 
ATOM      7  C12 MOL C   1      28.877  40.599  31.354 -0.72 -0.00    +0.005 C 
ENDBRANCH   5   6
ENDBRANCH   4   5
ENDBRANCH   3   4
ENDBRANCH   2   3
ENDBRANCH   1   2
BRANCH   1   8
ATOM      8  C3  MOL C   1      28.204  40.062  26.581 -0.48 -0.00    +0.000 C 
BRANCH   8   9
ATOM      9  C5  MOL C   1      29.100  38.684  26.479 -0.13 -0.00    +0.000 C 
BRANCH   9  10
ATOM     10  C7  MOL C   1      30.070  38.390  27.684 -0.27 +0.00    -0.000 C 
BRANCH  10  11
ATOM     11  C9  MOL C   1      29.974  36.942  28.280 -0.49 +0.00    -0.005 C 
ATOM     12  C11 MOL C   1      28.726  36.256  27.623 -0.49 -0.00    +0.005 C 
ENDBRANCH  10  11
ENDBRANCH   9  10
ENDBRANCH   8   9
ENDBRANCH   1   8
TORSDOF 9
TER
ENDMDL
MODEL       78
USER    Run = 78
USER    DPF = lac1.dpf
USER  
USER    Estimated Free Energy of Binding    =   -0.50 kcal/mol  [=(1)+(2)+(3)-(4)]
USER    Estimated Inhibition Constant, Ki   =  429.26 mM (millimolar)  [Temperature = 298.15 K]
USER    
USER    (1) Final Intermolecular Energy     =   -3.75 kcal/mol
USER        vdW + Hbond + desolv Energy     =   -3.75 kcal/mol
USER        Electrostatic Energy            =   -0.00 kcal/mol
USER    (2) Final Total Internal Energy     =   +0.28 kcal/mol
USER    (3) Torsional Free Energy           =   +2.68 kcal/mol
USER    (4) Unbound System's Energy         =   -0.29 kcal/mol
USER    
USER    
USER    NEWDPF move PE_ligand.pdbqt
USER    NEWDPF about 3.037000 5.209000 3.149000
USER    NEWDPF tran0 28.848288 38.519408 27.061688
USER    NEWDPF quaternion0 0.174484 0.558304 0.536528 -0.608268
USER    NEWDPF axisangle0 0.219828 0.703391 0.675957 -105.071272
USER    NEWDPF quat0 0.219828 0.703391 0.675957 -105.071272
USER    NEWDPF dihe0 168.34 167.03 162.60 -110.12 179.78 50.62 157.25 32.89 69.60 
USER  keepresnum = 1 
USER  
REMARK  9 active torsions:
REMARK  status: ('A' for Active; 'I' for Inactive)
REMARK    1  A    between atoms: C1_1  and  C2_2 
REMARK    2  A    between atoms: C1_1  and  C3_3 
REMARK    3  A    between atoms: C2_2  and  C4_4 
REMARK    4  A    between atoms: C3_3  and  C5_5 
REMARK    5  A    between atoms: C4_4  and  C6_6 
REMARK    6  A    between atoms: C5_5  and  C7_7 
REMARK    7  A    between atoms: C6_6  and  C8_8 
REMARK    8  A    between atoms: C7_7  and  C9_9 
REMARK    9  A    between atoms: C8_8  and  C10_10 
USER                              x       y       z     vdW  Elec       q    Type
USER                           _______ _______ _______ _____ _____    ______ ____
ROOT
ATOM      1  C1  MOL C   1      29.126  39.039  28.066 -0.60 -0.00    +0.000 C 
ENDROOT
BRANCH   1   2
ATOM      2  C2  MOL C   1      28.877  39.726  26.716 -0.38 -0.00    +0.000 C 
BRANCH   2   3
ATOM      3  C4  MOL C   1      27.346  40.037  26.642 -0.56 -0.00    +0.000 C 
BRANCH   3   4
ATOM      4  C6  MOL C   1      26.472  39.174  27.697 -0.48 -0.00    +0.000 C 
BRANCH   4   5
ATOM      5  C8  MOL C   1      26.252  39.790  29.060 +0.23 +0.00    -0.000 C 
BRANCH   5   6
ATOM      6  C10 MOL C   1      27.436  40.705  29.356 -0.10 +0.00    -0.005 C 
ATOM      7  C12 MOL C   1      28.030  40.634  30.730 -0.62 -0.00    +0.005 C 
ENDBRANCH   5   6
ENDBRANCH   4   5
ENDBRANCH   3   4
ENDBRANCH   2   3
ENDBRANCH   1   2
BRANCH   1   8
ATOM      8  C3  MOL C   1      30.396  38.128  27.828 +0.15 -0.00    +0.000 C 
BRANCH   8   9
ATOM      9  C5  MOL C   1      29.994  36.568  28.173 -0.55 -0.00    +0.000 C 
BRANCH   9  10
ATOM     10  C7  MOL C   1      28.591  36.339  28.848 -0.49 +0.00    -0.000 C 
BRANCH  10  11
ATOM     11  C9  MOL C   1      27.379  36.251  27.857 -0.29 +0.00    -0.005 C 
ATOM     12  C11 MOL C   1      27.958  36.414  26.408 -0.07 -0.00    +0.005 C 
ENDBRANCH  10  11
ENDBRANCH   9  10
ENDBRANCH   8   9
ENDBRANCH   1   8
TORSDOF 9
TER
ENDMDL
MODEL       79
USER    Run = 79
USER    DPF = lac1.dpf
USER  
USER    Estimated Free Energy of Binding    =   +0.96 kcal/mol  [=(1)+(2)+(3)-(4)]
USER    
USER    (1) Final Intermolecular Energy     =   -3.74 kcal/mol
USER        vdW + Hbond + desolv Energy     =   -3.74 kcal/mol
USER        Electrostatic Energy            =   -0.00 kcal/mol
USER    (2) Final Total Internal Energy     =   +1.74 kcal/mol
USER    (3) Torsional Free Energy           =   +2.68 kcal/mol
USER    (4) Unbound System's Energy         =   -0.29 kcal/mol
USER    
USER    
USER    NEWDPF move PE_ligand.pdbqt
USER    NEWDPF about 3.037000 5.209000 3.149000
USER    NEWDPF tran0 28.242279 38.313258 27.865669
USER    NEWDPF quaternion0 0.694866 0.322461 0.109191 -0.633449
USER    NEWDPF axisangle0 0.898010 0.416732 0.141113 -101.389945
USER    NEWDPF quat0 0.898010 0.416732 0.141113 -101.389945
USER    NEWDPF dihe0 151.89 -13.53 -179.75 177.09 162.89 98.04 -172.32 -162.87 -7.40 
USER  keepresnum = 1 
USER  
REMARK  9 active torsions:
REMARK  status: ('A' for Active; 'I' for Inactive)
REMARK    1  A    between atoms: C1_1  and  C2_2 
REMARK    2  A    between atoms: C1_1  and  C3_3 
REMARK    3  A    between atoms: C2_2  and  C4_4 
REMARK    4  A    between atoms: C3_3  and  C5_5 
REMARK    5  A    between atoms: C4_4  and  C6_6 
REMARK    6  A    between atoms: C5_5  and  C7_7 
REMARK    7  A    between atoms: C6_6  and  C8_8 
REMARK    8  A    between atoms: C7_7  and  C9_9 
REMARK    9  A    between atoms: C8_8  and  C10_10 
USER                              x       y       z     vdW  Elec       q    Type
USER                           _______ _______ _______ _____ _____    ______ ____
ROOT
ATOM      1  C1  MOL C   1      28.855  37.644  28.596 -0.49 -0.00    +0.000 C 
ENDROOT
BRANCH   1   2
ATOM      2  C2  MOL C   1      29.413  38.702  27.632 -0.53 -0.00    +0.000 C 
BRANCH   2   3
ATOM      3  C4  MOL C   1      28.192  39.529  27.112 -0.58 -0.00    +0.000 C 
BRANCH   3   4
ATOM      4  C6  MOL C   1      26.836  39.252  27.951 -0.51 -0.00    +0.000 C 
BRANCH   4   5
ATOM      5  C8  MOL C   1      26.762  39.849  29.338 -0.01 +0.00    -0.000 C 
BRANCH   5   6
ATOM      6  C10 MOL C   1      28.150  40.369  29.697 -0.52 +0.00    -0.005 C 
ATOM      7  C12 MOL C   1      28.509  40.416  31.152 -0.71 -0.00    +0.005 C 
ENDBRANCH   5   6
ENDBRANCH   4   5
ENDBRANCH   3   4
ENDBRANCH   2   3
ENDBRANCH   1   2
BRANCH   1   8
ATOM      8  C3  MOL C   1      28.192  36.555  27.661 -0.46 -0.00    +0.000 C 
BRANCH   8   9
ATOM      9  C5  MOL C   1      29.188  36.289  26.375 -0.45 -0.00    +0.000 C 
BRANCH   9  10
ATOM     10  C7  MOL C   1      30.733  36.284  26.676 -0.34 +0.00    -0.000 C 
BRANCH  10  11
ATOM     11  C9  MOL C   1      31.117  36.252  28.196 -0.37 +0.00    -0.005 C 
ATOM     12  C11 MOL C   1      32.684  36.250  28.274 +1.25 -0.00    +0.005 C 
ENDBRANCH  10  11
ENDBRANCH   9  10
ENDBRANCH   8   9
ENDBRANCH   1   8
TORSDOF 9
TER
ENDMDL
MODEL       80
USER    Run = 80
USER    DPF = lac1.dpf
USER  
USER    Estimated Free Energy of Binding    =   -1.24 kcal/mol  [=(1)+(2)+(3)-(4)]
USER    Estimated Inhibition Constant, Ki   =  124.09 mM (millimolar)  [Temperature = 298.15 K]
USER    
USER    (1) Final Intermolecular Energy     =   -3.86 kcal/mol
USER        vdW + Hbond + desolv Energy     =   -3.86 kcal/mol
USER        Electrostatic Energy            =   -0.00 kcal/mol
USER    (2) Final Total Internal Energy     =   -0.34 kcal/mol
USER    (3) Torsional Free Energy           =   +2.68 kcal/mol
USER    (4) Unbound System's Energy         =   -0.29 kcal/mol
USER    
USER    
USER    NEWDPF move PE_ligand.pdbqt
USER    NEWDPF about 3.037000 5.209000 3.149000
USER    NEWDPF tran0 28.893080 38.805813 27.934195
USER    NEWDPF quaternion0 -0.393329 -0.757851 -0.152259 0.497766
USER    NEWDPF axisangle0 -0.453504 -0.873794 -0.175553 120.295439
USER    NEWDPF quat0 -0.453504 -0.873794 -0.175553 120.295439
USER    NEWDPF dihe0 176.43 -136.86 156.60 172.46 -157.88 143.18 128.45 35.85 48.62 
USER  keepresnum = 1 
USER  
REMARK  9 active torsions:
REMARK  status: ('A' for Active; 'I' for Inactive)
REMARK    1  A    between atoms: C1_1  and  C2_2 
REMARK    2  A    between atoms: C1_1  and  C3_3 
REMARK    3  A    between atoms: C2_2  and  C4_4 
REMARK    4  A    between atoms: C3_3  and  C5_5 
REMARK    5  A    between atoms: C4_4  and  C6_6 
REMARK    6  A    between atoms: C5_5  and  C7_7 
REMARK    7  A    between atoms: C6_6  and  C8_8 
REMARK    8  A    between atoms: C7_7  and  C9_9 
REMARK    9  A    between atoms: C8_8  and  C10_10 
USER                              x       y       z     vdW  Elec       q    Type
USER                           _______ _______ _______ _____ _____    ______ ____
ROOT
ATOM      1  C1  MOL C   1      29.968  39.167  28.201 -0.42 -0.00    +0.000 C 
ENDROOT
BRANCH   1   2
ATOM      2  C2  MOL C   1      29.060  39.725  27.096 -0.33 -0.00    +0.000 C 
BRANCH   2   3
ATOM      3  C4  MOL C   1      27.865  40.439  27.809 -0.59 -0.00    +0.000 C 
BRANCH   3   4
ATOM      4  C6  MOL C   1      27.212  39.550  28.994 -0.47 -0.00    +0.000 C 
BRANCH   4   5
ATOM      5  C8  MOL C   1      27.385  40.066  30.404 -0.17 +0.00    -0.000 C 
BRANCH   5   6
ATOM      6  C10 MOL C   1      28.746  40.750  30.487 -0.34 +0.00    -0.005 C 
ATOM      7  C12 MOL C   1      29.662  40.321  31.593 -0.32 -0.01    +0.005 C 
ENDBRANCH   5   6
ENDBRANCH   4   5
ENDBRANCH   3   4
ENDBRANCH   2   3
ENDBRANCH   1   2
BRANCH   1   8
ATOM      8  C3  MOL C   1      30.241  37.668  27.782 -0.25 -0.00    +0.000 C 
BRANCH   8   9
ATOM      9  C5  MOL C   1      29.662  36.677  28.964 -0.13 -0.00    +0.000 C 
BRANCH   9  10
ATOM     10  C7  MOL C   1      28.126  36.337  28.902 -0.32 +0.00    -0.000 C 
BRANCH  10  11
ATOM     11  C9  MOL C   1      27.379  36.851  27.623 -0.25 +0.00    -0.005 C 
ATOM     12  C11 MOL C   1      28.127  36.252  26.381 -0.28 -0.00    +0.005 C 
ENDBRANCH  10  11
ENDBRANCH   9  10
ENDBRANCH   8   9
ENDBRANCH   1   8
TORSDOF 9
TER
ENDMDL
MODEL       81
USER    Run = 81
USER    DPF = lac1.dpf
USER  
USER    Estimated Free Energy of Binding    =   -1.58 kcal/mol  [=(1)+(2)+(3)-(4)]
USER    Estimated Inhibition Constant, Ki   =   69.70 mM (millimolar)  [Temperature = 298.15 K]
USER    
USER    (1) Final Intermolecular Energy     =   -4.98 kcal/mol
USER        vdW + Hbond + desolv Energy     =   -4.98 kcal/mol
USER        Electrostatic Energy            =   -0.00 kcal/mol
USER    (2) Final Total Internal Energy     =   +0.43 kcal/mol
USER    (3) Torsional Free Energy           =   +2.68 kcal/mol
USER    (4) Unbound System's Energy         =   -0.29 kcal/mol
USER    
USER    
USER    NEWDPF move PE_ligand.pdbqt
USER    NEWDPF about 3.037000 5.209000 3.149000
USER    NEWDPF tran0 28.782205 38.841806 27.954944
USER    NEWDPF quaternion0 0.873572 -0.139674 0.200869 0.420731
USER    NEWDPF axisangle0 0.962948 -0.153964 0.221420 130.238474
USER    NEWDPF quat0 0.962948 -0.153964 0.221420 130.238474
USER    NEWDPF dihe0 84.37 -47.75 174.02 143.23 27.39 150.09 174.80 59.15 95.65 
USER  keepresnum = 1 
USER  
REMARK  9 active torsions:
REMARK  status: ('A' for Active; 'I' for Inactive)
REMARK    1  A    between atoms: C1_1  and  C2_2 
REMARK    2  A    between atoms: C1_1  and  C3_3 
REMARK    3  A    between atoms: C2_2  and  C4_4 
REMARK    4  A    between atoms: C3_3  and  C5_5 
REMARK    5  A    between atoms: C4_4  and  C6_6 
REMARK    6  A    between atoms: C5_5  and  C7_7 
REMARK    7  A    between atoms: C6_6  and  C8_8 
REMARK    8  A    between atoms: C7_7  and  C9_9 
REMARK    9  A    between atoms: C8_8  and  C10_10 
USER                              x       y       z     vdW  Elec       q    Type
USER                           _______ _______ _______ _____ _____    ______ ____
ROOT
ATOM      1  C1  MOL C   1      28.976  38.870  26.807 -0.42 -0.00    +0.000 C 
ENDROOT
BRANCH   1   2
ATOM      2  C2  MOL C   1      29.995  38.523  27.901 -0.43 -0.00    +0.000 C 
BRANCH   2   3
ATOM      3  C4  MOL C   1      30.395  37.026  27.690 -0.36 -0.00    +0.000 C 
BRANCH   3   4
ATOM      4  C6  MOL C   1      29.628  36.335  26.443 -0.47 -0.00    +0.000 C 
BRANCH   4   5
ATOM      5  C8  MOL C   1      28.121  36.252  26.535 -0.30 +0.00    -0.000 C 
BRANCH   5   6
ATOM      6  C10 MOL C   1      27.730  36.478  27.991 -0.45 +0.00    -0.005 C 
ATOM      7  C12 MOL C   1      26.513  37.315  28.251 +0.10 -0.00    +0.005 C 
ENDBRANCH   5   6
ENDBRANCH   4   5
ENDBRANCH   3   4
ENDBRANCH   2   3
ENDBRANCH   1   2
BRANCH   1   8
ATOM      8  C3  MOL C   1      28.575  40.372  27.090 -0.34 -0.00    +0.000 C 
BRANCH   8   9
ATOM      9  C5  MOL C   1      27.189  40.387  27.981 -0.61 -0.00    +0.000 C 
BRANCH   9  10
ATOM     10  C7  MOL C   1      27.363  40.386  29.546 -0.42 +0.00    -0.000 C 
BRANCH  10  11
ATOM     11  C9  MOL C   1      28.736  39.833  30.065 -0.58 +0.00    -0.005 C 
ATOM     12  C11 MOL C   1      29.106  40.654  31.349 -0.71 -0.00    +0.005 C 
ENDBRANCH  10  11
ENDBRANCH   9  10
ENDBRANCH   8   9
ENDBRANCH   1   8
TORSDOF 9
TER
ENDMDL
MODEL       82
USER    Run = 82
USER    DPF = lac1.dpf
USER  
USER    Estimated Free Energy of Binding    =   +2.55 kcal/mol  [=(1)+(2)+(3)-(4)]
USER    
USER    (1) Final Intermolecular Energy     =   -1.33 kcal/mol
USER        vdW + Hbond + desolv Energy     =   -1.33 kcal/mol
USER        Electrostatic Energy            =   -0.00 kcal/mol
USER    (2) Final Total Internal Energy     =   +0.91 kcal/mol
USER    (3) Torsional Free Energy           =   +2.68 kcal/mol
USER    (4) Unbound System's Energy         =   -0.29 kcal/mol
USER    
USER    
USER    NEWDPF move PE_ligand.pdbqt
USER    NEWDPF about 3.037000 5.209000 3.149000
USER    NEWDPF tran0 29.068690 38.966251 26.467122
USER    NEWDPF quaternion0 -0.159852 -0.446823 -0.167617 -0.864119
USER    NEWDPF axisangle0 -0.317615 -0.887807 -0.333045 -60.435583
USER    NEWDPF quat0 -0.317615 -0.887807 -0.333045 -60.435583
USER    NEWDPF dihe0 111.63 0.61 -102.96 -91.18 85.98 28.66 44.53 -139.81 15.40 
USER  keepresnum = 1 
USER  
REMARK  9 active torsions:
REMARK  status: ('A' for Active; 'I' for Inactive)
REMARK    1  A    between atoms: C1_1  and  C2_2 
REMARK    2  A    between atoms: C1_1  and  C3_3 
REMARK    3  A    between atoms: C2_2  and  C4_4 
REMARK    4  A    between atoms: C3_3  and  C5_5 
REMARK    5  A    between atoms: C4_4  and  C6_6 
REMARK    6  A    between atoms: C5_5  and  C7_7 
REMARK    7  A    between atoms: C6_6  and  C8_8 
REMARK    8  A    between atoms: C7_7  and  C9_9 
REMARK    9  A    between atoms: C8_8  and  C10_10 
USER                              x       y       z     vdW  Elec       q    Type
USER                           _______ _______ _______ _____ _____    ______ ____
ROOT
ATOM      1  C1  MOL C   1      28.843  40.089  26.683 -0.22 -0.00    +0.000 C 
ENDROOT
BRANCH   1   2
ATOM      2  C2  MOL C   1      29.503  39.084  27.639 -0.50 -0.00    +0.000 C 
BRANCH   2   3
ATOM      3  C4  MOL C   1      30.371  38.125  26.759 +1.76 -0.00    +0.000 C 
BRANCH   3   4
ATOM      4  C6  MOL C   1      30.114  36.561  27.086 -0.48 -0.00    +0.000 C 
BRANCH   4   5
ATOM      5  C8  MOL C   1      29.161  36.251  28.217 -0.55 +0.00    -0.000 C 
BRANCH   5   6
ATOM      6  C10 MOL C   1      27.771  36.715  27.797 -0.43 +0.00    -0.005 C 
ATOM      7  C12 MOL C   1      26.613  36.251  28.629 +1.34 -0.00    +0.005 C 
ENDBRANCH   5   6
ENDBRANCH   4   5
ENDBRANCH   3   4
ENDBRANCH   2   3
ENDBRANCH   1   2
BRANCH   1   8
ATOM      8  C3  MOL C   1      27.388  39.521  26.443 -0.53 -0.00    +0.000 C 
BRANCH   8   9
ATOM      9  C5  MOL C   1      26.562  39.572  27.867 -0.53 -0.00    +0.000 C 
BRANCH   9  10
ATOM     10  C7  MOL C   1      27.416  39.398  29.178 -0.28 +0.00    -0.000 C 
BRANCH  10  11
ATOM     11  C9  MOL C   1      27.696  40.720  29.973 -0.21 +0.00    -0.005 C 
ATOM     12  C11 MOL C   1      28.834  40.403  31.006 -0.70 -0.00    +0.005 C 
ENDBRANCH  10  11
ENDBRANCH   9  10
ENDBRANCH   8   9
ENDBRANCH   1   8
TORSDOF 9
TER
ENDMDL
MODEL       83
USER    Run = 83
USER    DPF = lac1.dpf
USER  
USER    Estimated Free Energy of Binding    =   -3.21 kcal/mol  [=(1)+(2)+(3)-(4)]
USER    Estimated Inhibition Constant, Ki   =    4.45 mM (millimolar)  [Temperature = 298.15 K]
USER    
USER    (1) Final Intermolecular Energy     =   -5.78 kcal/mol
USER        vdW + Hbond + desolv Energy     =   -5.78 kcal/mol
USER        Electrostatic Energy            =   -0.00 kcal/mol
USER    (2) Final Total Internal Energy     =   -0.40 kcal/mol
USER    (3) Torsional Free Energy           =   +2.68 kcal/mol
USER    (4) Unbound System's Energy         =   -0.29 kcal/mol
USER    
USER    
USER    NEWDPF move PE_ligand.pdbqt
USER    NEWDPF about 3.037000 5.209000 3.149000
USER    NEWDPF tran0 27.333267 39.273782 26.877306
USER    NEWDPF quaternion0 -0.430995 -0.371496 0.685640 -0.454017
USER    NEWDPF axisangle0 -0.483725 -0.416947 0.769523 -125.996565
USER    NEWDPF quat0 -0.483725 -0.416947 0.769523 -125.996565
USER    NEWDPF dihe0 -166.40 -149.52 139.33 -56.91 -47.84 10.85 -97.80 48.89 -65.90 
USER  keepresnum = 1 
USER  
REMARK  9 active torsions:
REMARK  status: ('A' for Active; 'I' for Inactive)
REMARK    1  A    between atoms: C1_1  and  C2_2 
REMARK    2  A    between atoms: C1_1  and  C3_3 
REMARK    3  A    between atoms: C2_2  and  C4_4 
REMARK    4  A    between atoms: C3_3  and  C5_5 
REMARK    5  A    between atoms: C4_4  and  C6_6 
REMARK    6  A    between atoms: C5_5  and  C7_7 
REMARK    7  A    between atoms: C6_6  and  C8_8 
REMARK    8  A    between atoms: C7_7  and  C9_9 
REMARK    9  A    between atoms: C8_8  and  C10_10 
USER                              x       y       z     vdW  Elec       q    Type
USER                           _______ _______ _______ _____ _____    ______ ____
ROOT
ATOM      1  C1  MOL C   1      26.387  38.808  26.382 -0.32 -0.00    +0.000 C 
ENDROOT
BRANCH   1   2
ATOM      2  C2  MOL C   1      26.678  40.303  26.580 -0.53 -0.00    +0.000 C 
BRANCH   2   3
ATOM      3  C4  MOL C   1      27.174  40.476  28.053 -0.58 -0.00    +0.000 C 
BRANCH   3   4
ATOM      4  C6  MOL C   1      28.769  40.251  28.215 -0.39 -0.00    +0.000 C 
BRANCH   4   5
ATOM      5  C8  MOL C   1      29.222  39.442  29.409 -0.53 +0.00    -0.000 C 
BRANCH   5   6
ATOM      6  C10 MOL C   1      28.573  40.040  30.652 -0.61 +0.00    -0.005 C 
ATOM      7  C12 MOL C   1      29.472  40.744  31.624 -0.68 -0.00    +0.005 C 
ENDBRANCH   5   6
ENDBRANCH   4   5
ENDBRANCH   3   4
ENDBRANCH   2   3
ENDBRANCH   1   2
BRANCH   1   8
ATOM      8  C3  MOL C   1      26.294  38.217  27.846 -0.36 -0.00    +0.000 C 
BRANCH   8   9
ATOM      9  C5  MOL C   1      27.658  37.344  28.148 -0.40 -0.00    +0.000 C 
BRANCH   9  10
ATOM     10  C7  MOL C   1      28.082  36.305  27.044 -0.35 +0.00    -0.000 C 
BRANCH  10  11
ATOM     11  C9  MOL C   1      29.617  36.262  26.722 -0.48 +0.00    -0.005 C 
ATOM     12  C11 MOL C   1      30.376  36.298  28.094 -0.56 -0.00    +0.005 C 
ENDBRANCH  10  11
ENDBRANCH   9  10
ENDBRANCH   8   9
ENDBRANCH   1   8
TORSDOF 9
TER
ENDMDL
MODEL       84
USER    Run = 84
USER    DPF = lac1.dpf
USER  
USER    Estimated Free Energy of Binding    =   +2.39 kcal/mol  [=(1)+(2)+(3)-(4)]
USER    
USER    (1) Final Intermolecular Energy     =   -2.83 kcal/mol
USER        vdW + Hbond + desolv Energy     =   -2.83 kcal/mol
USER        Electrostatic Energy            =   -0.00 kcal/mol
USER    (2) Final Total Internal Energy     =   +2.25 kcal/mol
USER    (3) Torsional Free Energy           =   +2.68 kcal/mol
USER    (4) Unbound System's Energy         =   -0.29 kcal/mol
USER    
USER    
USER    NEWDPF move PE_ligand.pdbqt
USER    NEWDPF about 3.037000 5.209000 3.149000
USER    NEWDPF tran0 27.525238 36.525456 27.580409
USER    NEWDPF quaternion0 0.040324 -0.516612 -0.621149 0.587929
USER    NEWDPF axisangle0 0.049850 -0.638650 -0.767881 107.979648
USER    NEWDPF quat0 0.049850 -0.638650 -0.767881 107.979648
USER    NEWDPF dihe0 127.85 -128.10 162.79 155.96 23.11 142.70 -82.63 125.87 133.71 
USER  keepresnum = 1 
USER  
REMARK  9 active torsions:
REMARK  status: ('A' for Active; 'I' for Inactive)
REMARK    1  A    between atoms: C1_1  and  C2_2 
REMARK    2  A    between atoms: C1_1  and  C3_3 
REMARK    3  A    between atoms: C2_2  and  C4_4 
REMARK    4  A    between atoms: C3_3  and  C5_5 
REMARK    5  A    between atoms: C4_4  and  C6_6 
REMARK    6  A    between atoms: C5_5  and  C7_7 
REMARK    7  A    between atoms: C6_6  and  C8_8 
REMARK    8  A    between atoms: C7_7  and  C9_9 
REMARK    9  A    between atoms: C8_8  and  C10_10 
USER                              x       y       z     vdW  Elec       q    Type
USER                           _______ _______ _______ _____ _____    ______ ____
ROOT
ATOM      1  C1  MOL C   1      27.304  37.171  28.525 +0.33 -0.00    +0.000 C 
ENDROOT
BRANCH   1   2
ATOM      2  C2  MOL C   1      27.264  37.639  27.063 -0.18 -0.00    +0.000 C 
BRANCH   2   3
ATOM      3  C4  MOL C   1      26.257  38.834  26.998 -0.38 -0.00    +0.000 C 
BRANCH   3   4
ATOM      4  C6  MOL C   1      26.990  40.276  26.936 -0.56 -0.00    +0.000 C 
BRANCH   4   5
ATOM      5  C8  MOL C   1      27.771  40.694  28.161 -0.36 +0.00    -0.000 C 
BRANCH   5   6
ATOM      6  C10 MOL C   1      27.137  40.018  29.372 -0.41 +0.00    -0.005 C 
ATOM      7  C12 MOL C   1      27.704  40.353  30.718 -0.56 -0.00    +0.005 C 
ENDBRANCH   5   6
ENDBRANCH   4   5
ENDBRANCH   3   4
ENDBRANCH   2   3
ENDBRANCH   1   2
BRANCH   1   8
ATOM      8  C3  MOL C   1      28.810  36.760  28.776 -0.44 -0.00    +0.000 C 
BRANCH   8   9
ATOM      9  C5  MOL C   1      29.460  36.251  27.350 -0.50 -0.00    +0.000 C 
BRANCH   9  10
ATOM     10  C7  MOL C   1      29.994  37.373  26.384 -0.30 +0.00    -0.000 C 
BRANCH  10  11
ATOM     11  C9  MOL C   1      29.626  38.840  26.797 +0.41 +0.00    -0.005 C 
ATOM     12  C11 MOL C   1      30.363  39.136  28.150 +0.13 -0.00    +0.005 C 
ENDBRANCH  10  11
ENDBRANCH   9  10
ENDBRANCH   8   9
ENDBRANCH   1   8
TORSDOF 9
TER
ENDMDL
MODEL       85
USER    Run = 85
USER    DPF = lac1.dpf
USER  
USER    Estimated Free Energy of Binding    =   +0.17 kcal/mol  [=(1)+(2)+(3)-(4)]
USER    
USER    (1) Final Intermolecular Energy     =   -3.48 kcal/mol
USER        vdW + Hbond + desolv Energy     =   -3.48 kcal/mol
USER        Electrostatic Energy            =   -0.00 kcal/mol
USER    (2) Final Total Internal Energy     =   +0.68 kcal/mol
USER    (3) Torsional Free Energy           =   +2.68 kcal/mol
USER    (4) Unbound System's Energy         =   -0.29 kcal/mol
USER    
USER    
USER    NEWDPF move PE_ligand.pdbqt
USER    NEWDPF about 3.037000 5.209000 3.149000
USER    NEWDPF tran0 27.966704 39.372635 27.433014
USER    NEWDPF quaternion0 -0.696887 -0.129610 0.111022 -0.696580
USER    NEWDPF axisangle0 -0.971300 -0.180647 0.154738 -91.693503
USER    NEWDPF quat0 -0.971300 -0.180647 0.154738 -91.693503
USER    NEWDPF dihe0 26.32 144.93 179.28 66.10 -114.35 -176.11 175.65 110.19 24.99 
USER  keepresnum = 1 
USER  
REMARK  9 active torsions:
REMARK  status: ('A' for Active; 'I' for Inactive)
REMARK    1  A    between atoms: C1_1  and  C2_2 
REMARK    2  A    between atoms: C1_1  and  C3_3 
REMARK    3  A    between atoms: C2_2  and  C4_4 
REMARK    4  A    between atoms: C3_3  and  C5_5 
REMARK    5  A    between atoms: C4_4  and  C6_6 
REMARK    6  A    between atoms: C5_5  and  C7_7 
REMARK    7  A    between atoms: C6_6  and  C8_8 
REMARK    8  A    between atoms: C7_7  and  C9_9 
REMARK    9  A    between atoms: C8_8  and  C10_10 
USER                              x       y       z     vdW  Elec       q    Type
USER                           _______ _______ _______ _____ _____    ______ ____
ROOT
ATOM      1  C1  MOL C   1      27.632  40.055  26.550 -0.53 -0.00    +0.000 C 
ENDROOT
BRANCH   1   2
ATOM      2  C2  MOL C   1      28.960  40.131  27.317 -0.03 -0.00    +0.000 C 
BRANCH   2   3
ATOM      3  C4  MOL C   1      29.478  38.664  27.474 -0.50 -0.00    +0.000 C 
BRANCH   3   4
ATOM      4  C6  MOL C   1      28.494  37.569  26.799 -0.43 -0.00    +0.000 C 
BRANCH   4   5
ATOM      5  C8  MOL C   1      29.117  36.251  26.402 -0.45 +0.00    -0.000 C 
BRANCH   5   6
ATOM      6  C10 MOL C   1      30.631  36.404  26.492 -0.28 +0.00    -0.005 C 
ATOM      7  C12 MOL C   1      31.256  36.254  27.847 -0.23 -0.00    +0.005 C 
ENDBRANCH   5   6
ENDBRANCH   4   5
ENDBRANCH   3   4
ENDBRANCH   2   3
ENDBRANCH   1   2
BRANCH   1   8
ATOM      8  C3  MOL C   1      26.523  40.379  27.629 -0.54 -0.00    +0.000 C 
BRANCH   8   9
ATOM      9  C5  MOL C   1      26.863  39.534  29.001 -0.33 -0.00    +0.000 C 
BRANCH   9  10
ATOM     10  C7  MOL C   1      27.003  40.375  30.325 +0.62 +0.00    -0.000 C 
BRANCH  10  11
ATOM     11  C9  MOL C   1      28.476  40.690  30.763 -0.60 +0.00    -0.005 C 
ATOM     12  C11 MOL C   1      29.398  39.623  30.075 -0.18 -0.00    +0.005 C 
ENDBRANCH  10  11
ENDBRANCH   9  10
ENDBRANCH   8   9
ENDBRANCH   1   8
TORSDOF 9
TER
ENDMDL
MODEL       86
USER    Run = 86
USER    DPF = lac1.dpf
USER  
USER    Estimated Free Energy of Binding    =   -1.20 kcal/mol  [=(1)+(2)+(3)-(4)]
USER    Estimated Inhibition Constant, Ki   =  131.76 mM (millimolar)  [Temperature = 298.15 K]
USER    
USER    (1) Final Intermolecular Energy     =   -4.26 kcal/mol
USER        vdW + Hbond + desolv Energy     =   -4.26 kcal/mol
USER        Electrostatic Energy            =   -0.00 kcal/mol
USER    (2) Final Total Internal Energy     =   +0.09 kcal/mol
USER    (3) Torsional Free Energy           =   +2.68 kcal/mol
USER    (4) Unbound System's Energy         =   -0.29 kcal/mol
USER    
USER    
USER    NEWDPF move PE_ligand.pdbqt
USER    NEWDPF about 3.037000 5.209000 3.149000
USER    NEWDPF tran0 27.389194 38.892243 27.651639
USER    NEWDPF quaternion0 0.553864 -0.749788 -0.359492 -0.042650
USER    NEWDPF axisangle0 0.554368 -0.750471 -0.359820 -175.111207
USER    NEWDPF quat0 0.554368 -0.750471 -0.359820 -175.111207
USER    NEWDPF dihe0 -94.56 -16.14 100.13 175.65 147.19 5.77 55.75 84.11 62.17 
USER  keepresnum = 1 
USER  
REMARK  9 active torsions:
REMARK  status: ('A' for Active; 'I' for Inactive)
REMARK    1  A    between atoms: C1_1  and  C2_2 
REMARK    2  A    between atoms: C1_1  and  C3_3 
REMARK    3  A    between atoms: C2_2  and  C4_4 
REMARK    4  A    between atoms: C3_3  and  C5_5 
REMARK    5  A    between atoms: C4_4  and  C6_6 
REMARK    6  A    between atoms: C5_5  and  C7_7 
REMARK    7  A    between atoms: C6_6  and  C8_8 
REMARK    8  A    between atoms: C7_7  and  C9_9 
REMARK    9  A    between atoms: C8_8  and  C10_10 
USER                              x       y       z     vdW  Elec       q    Type
USER                           _______ _______ _______ _____ _____    ______ ____
ROOT
ATOM      1  C1  MOL C   1      26.379  39.472  27.642 -0.51 -0.00    +0.000 C 
ENDROOT
BRANCH   1   2
ATOM      2  C2  MOL C   1      26.642  38.076  27.058 -0.09 -0.00    +0.000 C 
BRANCH   2   3
ATOM      3  C4  MOL C   1      26.564  37.065  28.248 +0.20 -0.00    +0.000 C 
BRANCH   3   4
ATOM      4  C6  MOL C   1      27.944  36.251  28.480 -0.48 -0.00    +0.000 C 
BRANCH   4   5
ATOM      5  C8  MOL C   1      29.183  37.077  28.741 -0.40 +0.00    -0.000 C 
BRANCH   5   6
ATOM      6  C10 MOL C   1      29.843  37.366  27.398 -0.47 +0.00    -0.005 C 
ATOM      7  C12 MOL C   1      29.844  36.263  26.383 -0.48 -0.00    +0.005 C 
ENDBRANCH   5   6
ENDBRANCH   4   5
ENDBRANCH   3   4
ENDBRANCH   2   3
ENDBRANCH   1   2
BRANCH   1   8
ATOM      8  C3  MOL C   1      27.300  40.443  26.801 -0.41 -0.00    +0.000 C 
BRANCH   8   9
ATOM      9  C5  MOL C   1      28.871  40.168  27.218 -0.26 -0.00    +0.000 C 
BRANCH   9  10
ATOM     10  C7  MOL C   1      29.212  40.250  28.752 -0.12 +0.00    -0.000 C 
BRANCH  10  11
ATOM     11  C9  MOL C   1      27.973  40.340  29.709 -0.54 +0.00    -0.005 C 
ATOM     12  C11 MOL C   1      28.525  40.342  31.177 -0.69 -0.00    +0.005 C 
ENDBRANCH  10  11
ENDBRANCH   9  10
ENDBRANCH   8   9
ENDBRANCH   1   8
TORSDOF 9
TER
ENDMDL
MODEL       87
USER    Run = 87
USER    DPF = lac1.dpf
USER  
USER    Estimated Free Energy of Binding    =   +0.47 kcal/mol  [=(1)+(2)+(3)-(4)]
USER    
USER    (1) Final Intermolecular Energy     =   -2.35 kcal/mol
USER        vdW + Hbond + desolv Energy     =   -2.35 kcal/mol
USER        Electrostatic Energy            =   +0.00 kcal/mol
USER    (2) Final Total Internal Energy     =   -0.15 kcal/mol
USER    (3) Torsional Free Energy           =   +2.68 kcal/mol
USER    (4) Unbound System's Energy         =   -0.29 kcal/mol
USER    
USER    
USER    NEWDPF move PE_ligand.pdbqt
USER    NEWDPF about 3.037000 5.209000 3.149000
USER    NEWDPF tran0 28.300969 39.670875 28.874869
USER    NEWDPF quaternion0 -0.039175 -0.040375 -0.299278 -0.952506
USER    NEWDPF axisangle0 -0.128644 -0.132585 -0.982788 -35.458545
USER    NEWDPF quat0 -0.128644 -0.132585 -0.982788 -35.458545
USER    NEWDPF dihe0 -6.51 133.11 -71.39 68.50 59.71 96.27 33.35 77.13 63.44 
USER  keepresnum = 1 
USER  
REMARK  9 active torsions:
REMARK  status: ('A' for Active; 'I' for Inactive)
REMARK    1  A    between atoms: C1_1  and  C2_2 
REMARK    2  A    between atoms: C1_1  and  C3_3 
REMARK    3  A    between atoms: C2_2  and  C4_4 
REMARK    4  A    between atoms: C3_3  and  C5_5 
REMARK    5  A    between atoms: C4_4  and  C6_6 
REMARK    6  A    between atoms: C5_5  and  C7_7 
REMARK    7  A    between atoms: C6_6  and  C8_8 
REMARK    8  A    between atoms: C7_7  and  C9_9 
REMARK    9  A    between atoms: C8_8  and  C10_10 
USER                              x       y       z     vdW  Elec       q    Type
USER                           _______ _______ _______ _____ _____    ______ ____
ROOT
ATOM      1  C1  MOL C   1      28.674  40.525  29.574 +0.40 -0.00    +0.000 C 
ENDROOT
BRANCH   1   2
ATOM      2  C2  MOL C   1      29.334  39.154  29.366 -0.33 -0.00    +0.000 C 
BRANCH   2   3
ATOM      3  C4  MOL C   1      30.205  39.263  28.072 -0.10 -0.00    +0.000 C 
BRANCH   3   4
ATOM      4  C6  MOL C   1      30.171  37.918  27.171 +0.09 -0.00    +0.000 C 
BRANCH   4   5
ATOM      5  C8  MOL C   1      29.964  36.614  27.907 -0.54 +0.00    -0.000 C 
BRANCH   5   6
ATOM      6  C10 MOL C   1      28.486  36.252  27.809 -0.49 +0.00    -0.005 C 
ATOM      7  C12 MOL C   1      27.856  36.305  26.449 +0.09 -0.00    +0.005 C 
ENDBRANCH   5   6
ENDBRANCH   4   5
ENDBRANCH   3   4
ENDBRANCH   2   3
ENDBRANCH   1   2
BRANCH   1   8
ATOM      8  C3  MOL C   1      27.262  40.202  30.206 -0.05 -0.00    +0.000 C 
BRANCH   8   9
ATOM      9  C5  MOL C   1      26.253  39.692  29.007 -0.01 -0.00    +0.000 C 
BRANCH   9  10
ATOM     10  C7  MOL C   1      26.900  38.805  27.879 -0.47 +0.00    -0.000 C 
BRANCH  10  11
ATOM     11  C9  MOL C   1      27.315  39.578  26.578 -0.53 +0.00    -0.005 C 
ATOM     12  C11 MOL C   1      26.274  40.735  26.379 -0.40 -0.00    +0.005 C 
ENDBRANCH  10  11
ENDBRANCH   9  10
ENDBRANCH   8   9
ENDBRANCH   1   8
TORSDOF 9
TER
ENDMDL
MODEL       88
USER    Run = 88
USER    DPF = lac1.dpf
USER  
USER    Estimated Free Energy of Binding    =   -2.20 kcal/mol  [=(1)+(2)+(3)-(4)]
USER    Estimated Inhibition Constant, Ki   =   24.46 mM (millimolar)  [Temperature = 298.15 K]
USER    
USER    (1) Final Intermolecular Energy     =   -4.88 kcal/mol
USER        vdW + Hbond + desolv Energy     =   -4.88 kcal/mol
USER        Electrostatic Energy            =   -0.00 kcal/mol
USER    (2) Final Total Internal Energy     =   -0.29 kcal/mol
USER    (3) Torsional Free Energy           =   +2.68 kcal/mol
USER    (4) Unbound System's Energy         =   -0.29 kcal/mol
USER    
USER    
USER    NEWDPF move PE_ligand.pdbqt
USER    NEWDPF about 3.037000 5.209000 3.149000
USER    NEWDPF tran0 28.661071 38.564840 27.781313
USER    NEWDPF quaternion0 0.283266 0.768119 0.324222 -0.473957
USER    NEWDPF axisangle0 0.321693 0.872319 0.368204 -123.417139
USER    NEWDPF quat0 0.321693 0.872319 0.368204 -123.417139
USER    NEWDPF dihe0 80.88 -157.57 52.36 -151.08 158.83 101.89 -176.57 39.59 48.30 
USER  keepresnum = 1 
USER  
REMARK  9 active torsions:
REMARK  status: ('A' for Active; 'I' for Inactive)
REMARK    1  A    between atoms: C1_1  and  C2_2 
REMARK    2  A    between atoms: C1_1  and  C3_3 
REMARK    3  A    between atoms: C2_2  and  C4_4 
REMARK    4  A    between atoms: C3_3  and  C5_5 
REMARK    5  A    between atoms: C4_4  and  C6_6 
REMARK    6  A    between atoms: C5_5  and  C7_7 
REMARK    7  A    between atoms: C6_6  and  C8_8 
REMARK    8  A    between atoms: C7_7  and  C9_9 
REMARK    9  A    between atoms: C8_8  and  C10_10 
USER                              x       y       z     vdW  Elec       q    Type
USER                           _______ _______ _______ _____ _____    ______ ____
ROOT
ATOM      1  C1  MOL C   1      29.508  39.210  28.255 -0.59 -0.00    +0.000 C 
ENDROOT
BRANCH   1   2
ATOM      2  C2  MOL C   1      28.565  39.625  27.116 -0.59 -0.00    +0.000 C 
BRANCH   2   3
ATOM      3  C4  MOL C   1      27.133  39.743  27.734 -0.57 -0.00    +0.000 C 
BRANCH   3   4
ATOM      4  C6  MOL C   1      27.126  39.609  29.348 -0.23 -0.00    +0.000 C 
BRANCH   4   5
ATOM      5  C8  MOL C   1      27.744  40.749  30.126 -0.32 +0.00    -0.000 C 
BRANCH   5   6
ATOM      6  C10 MOL C   1      28.562  40.148  31.263 -0.57 +0.00    -0.005 C 
ATOM      7  C12 MOL C   1      29.916  40.739  31.520 -0.60 -0.00    +0.005 C 
ENDBRANCH   5   6
ENDBRANCH   4   5
ENDBRANCH   3   4
ENDBRANCH   2   3
ENDBRANCH   1   2
BRANCH   1   8
ATOM      8  C3  MOL C   1      30.333  37.994  27.672 +0.03 -0.00    +0.000 C 
BRANCH   8   9
ATOM      9  C5  MOL C   1      29.963  36.644  28.540 -0.45 -0.00    +0.000 C 
BRANCH   9  10
ATOM     10  C7  MOL C   1      28.444  36.436  28.897 -0.42 +0.00    -0.000 C 
BRANCH  10  11
ATOM     11  C9  MOL C   1      27.438  36.727  27.730 -0.30 +0.00    -0.005 C 
ATOM     12  C11 MOL C   1      28.127  36.257  26.401 -0.28 -0.00    +0.005 C 
ENDBRANCH  10  11
ENDBRANCH   9  10
ENDBRANCH   8   9
ENDBRANCH   1   8
TORSDOF 9
TER
ENDMDL
MODEL       89
USER    Run = 89
USER    DPF = lac1.dpf
USER  
USER    Estimated Free Energy of Binding    =   -1.62 kcal/mol  [=(1)+(2)+(3)-(4)]
USER    Estimated Inhibition Constant, Ki   =   65.40 mM (millimolar)  [Temperature = 298.15 K]
USER    
USER    (1) Final Intermolecular Energy     =   -4.02 kcal/mol
USER        vdW + Hbond + desolv Energy     =   -4.02 kcal/mol
USER        Electrostatic Energy            =   +0.00 kcal/mol
USER    (2) Final Total Internal Energy     =   -0.57 kcal/mol
USER    (3) Torsional Free Energy           =   +2.68 kcal/mol
USER    (4) Unbound System's Energy         =   -0.29 kcal/mol
USER    
USER    
USER    NEWDPF move PE_ligand.pdbqt
USER    NEWDPF about 3.037000 5.209000 3.149000
USER    NEWDPF tran0 30.197687 38.017747 26.698471
USER    NEWDPF quaternion0 -0.159967 0.219717 0.918731 0.286477
USER    NEWDPF axisangle0 -0.166965 0.229329 0.958922 146.705729
USER    NEWDPF quat0 -0.166965 0.229329 0.958922 146.705729
USER    NEWDPF dihe0 -162.88 144.46 111.37 -8.82 130.54 -180.00 -80.07 -121.10 163.75 
USER  keepresnum = 1 
USER  
REMARK  9 active torsions:
REMARK  status: ('A' for Active; 'I' for Inactive)
REMARK    1  A    between atoms: C1_1  and  C2_2 
REMARK    2  A    between atoms: C1_1  and  C3_3 
REMARK    3  A    between atoms: C2_2  and  C4_4 
REMARK    4  A    between atoms: C3_3  and  C5_5 
REMARK    5  A    between atoms: C4_4  and  C6_6 
REMARK    6  A    between atoms: C5_5  and  C7_7 
REMARK    7  A    between atoms: C6_6  and  C8_8 
REMARK    8  A    between atoms: C7_7  and  C9_9 
REMARK    9  A    between atoms: C8_8  and  C10_10 
USER                              x       y       z     vdW  Elec       q    Type
USER                           _______ _______ _______ _____ _____    ______ ____
ROOT
ATOM      1  C1  MOL C   1      30.365  37.671  27.798 -0.14 -0.00    +0.000 C 
ENDROOT
BRANCH   1   2
ATOM      2  C2  MOL C   1      29.172  37.321  26.896 -0.46 -0.00    +0.000 C 
BRANCH   2   3
ATOM      3  C4  MOL C   1      28.180  36.479  27.764 -0.47 -0.00    +0.000 C 
BRANCH   3   4
ATOM      4  C6  MOL C   1      26.880  37.319  28.236 -0.12 -0.00    +0.000 C 
BRANCH   4   5
ATOM      5  C8  MOL C   1      26.258  38.240  27.210 -0.09 +0.00    -0.000 C 
BRANCH   5   6
ATOM      6  C10 MOL C   1      27.097  39.512  27.157 -0.52 +0.00    -0.005 C 
ATOM      7  C12 MOL C   1      26.504  40.749  27.762 -0.35 -0.00    +0.005 C 
ENDBRANCH   5   6
ENDBRANCH   4   5
ENDBRANCH   3   4
ENDBRANCH   2   3
ENDBRANCH   1   2
BRANCH   1   8
ATOM      8  C3  MOL C   1      30.290  39.240  27.976 +0.02 -0.00    +0.000 C 
BRANCH   8   9
ATOM      9  C5  MOL C   1      29.236  39.582  29.194 -0.60 -0.00    +0.000 C 
BRANCH   9  10
ATOM     10  C7  MOL C   1      29.819  40.378  30.421 -0.24 +0.00    -0.000 C 
BRANCH  10  11
ATOM     11  C9  MOL C   1      28.830  40.569  31.624 -0.72 +0.00    -0.005 C 
ATOM     12  C11 MOL C   1      27.377  40.412  31.054 -0.32 -0.00    +0.005 C 
ENDBRANCH  10  11
ENDBRANCH   9  10
ENDBRANCH   8   9
ENDBRANCH   1   8
TORSDOF 9
TER
ENDMDL
MODEL       90
USER    Run = 90
USER    DPF = lac1.dpf
USER  
USER    Estimated Free Energy of Binding    =   -1.68 kcal/mol  [=(1)+(2)+(3)-(4)]
USER    Estimated Inhibition Constant, Ki   =   58.83 mM (millimolar)  [Temperature = 298.15 K]
USER    
USER    (1) Final Intermolecular Energy     =   -3.77 kcal/mol
USER        vdW + Hbond + desolv Energy     =   -3.77 kcal/mol
USER        Electrostatic Energy            =   -0.00 kcal/mol
USER    (2) Final Total Internal Energy     =   -0.88 kcal/mol
USER    (3) Torsional Free Energy           =   +2.68 kcal/mol
USER    (4) Unbound System's Energy         =   -0.29 kcal/mol
USER    
USER    
USER    NEWDPF move PE_ligand.pdbqt
USER    NEWDPF about 3.037000 5.209000 3.149000
USER    NEWDPF tran0 27.771981 38.990678 27.598793
USER    NEWDPF quaternion0 0.715349 -0.343960 -0.589116 0.151363
USER    NEWDPF axisangle0 0.723687 -0.347969 -0.595982 162.588206
USER    NEWDPF quat0 0.723687 -0.347969 -0.595982 162.588206
USER    NEWDPF dihe0 -144.38 -71.75 178.48 -130.67 -10.91 124.32 179.56 18.11 55.07 
USER  keepresnum = 1 
USER  
REMARK  9 active torsions:
REMARK  status: ('A' for Active; 'I' for Inactive)
REMARK    1  A    between atoms: C1_1  and  C2_2 
REMARK    2  A    between atoms: C1_1  and  C3_3 
REMARK    3  A    between atoms: C2_2  and  C4_4 
REMARK    4  A    between atoms: C3_3  and  C5_5 
REMARK    5  A    between atoms: C4_4  and  C6_6 
REMARK    6  A    between atoms: C5_5  and  C7_7 
REMARK    7  A    between atoms: C6_6  and  C8_8 
REMARK    8  A    between atoms: C7_7  and  C9_9 
REMARK    9  A    between atoms: C8_8  and  C10_10 
USER                              x       y       z     vdW  Elec       q    Type
USER                           _______ _______ _______ _____ _____    ______ ____
ROOT
ATOM      1  C1  MOL C   1      26.616  38.868  27.670 -0.46 -0.00    +0.000 C 
ENDROOT
BRANCH   1   2
ATOM      2  C2  MOL C   1      27.475  38.752  26.403 -0.43 -0.00    +0.000 C 
BRANCH   2   3
ATOM      3  C4  MOL C   1      28.221  37.379  26.485 -0.39 -0.00    +0.000 C 
BRANCH   3   4
ATOM      4  C6  MOL C   1      27.786  36.498  27.772 -0.43 -0.00    +0.000 C 
BRANCH   4   5
ATOM      5  C8  MOL C   1      28.723  36.522  28.958 -0.41 +0.00    -0.000 C 
BRANCH   5   6
ATOM      6  C10 MOL C   1      30.032  37.161  28.506 -0.23 +0.00    -0.005 C 
ATOM      7  C12 MOL C   1      31.076  36.251  27.933 -0.42 -0.00    +0.005 C 
ENDBRANCH   5   6
ENDBRANCH   4   5
ENDBRANCH   3   4
ENDBRANCH   2   3
ENDBRANCH   1   2
BRANCH   1   8
ATOM      8  C3  MOL C   1      26.798  40.364  28.146 -0.53 -0.00    +0.000 C 
BRANCH   8   9
ATOM      9  C5  MOL C   1      27.002  40.374  29.781 +0.34 -0.00    +0.000 C 
BRANCH   9  10
ATOM     10  C7  MOL C   1      28.302  39.675  30.328 -0.38 +0.00    -0.000 C 
BRANCH  10  11
ATOM     11  C9  MOL C   1      29.653  40.338  29.888 -0.12 +0.00    -0.005 C 
ATOM     12  C11 MOL C   1      30.417  40.738  31.198 -0.31 -0.00    +0.005 C 
ENDBRANCH  10  11
ENDBRANCH   9  10
ENDBRANCH   8   9
ENDBRANCH   1   8
TORSDOF 9
TER
ENDMDL
MODEL       91
USER    Run = 91
USER    DPF = lac1.dpf
USER  
USER    Estimated Free Energy of Binding    =   -1.94 kcal/mol  [=(1)+(2)+(3)-(4)]
USER    Estimated Inhibition Constant, Ki   =   37.70 mM (millimolar)  [Temperature = 298.15 K]
USER    
USER    (1) Final Intermolecular Energy     =   -4.18 kcal/mol
USER        vdW + Hbond + desolv Energy     =   -4.18 kcal/mol
USER        Electrostatic Energy            =   -0.00 kcal/mol
USER    (2) Final Total Internal Energy     =   -0.73 kcal/mol
USER    (3) Torsional Free Energy           =   +2.68 kcal/mol
USER    (4) Unbound System's Energy         =   -0.29 kcal/mol
USER    
USER    
USER    NEWDPF move PE_ligand.pdbqt
USER    NEWDPF about 3.037000 5.209000 3.149000
USER    NEWDPF tran0 28.168132 39.375733 27.411924
USER    NEWDPF quaternion0 0.794918 -0.158392 -0.317045 0.492443
USER    NEWDPF axisangle0 0.913337 -0.181988 -0.364275 120.997474
USER    NEWDPF quat0 0.913337 -0.181988 -0.364275 120.997474
USER    NEWDPF dihe0 -169.25 20.88 -129.09 -109.27 -7.72 153.26 -72.12 45.84 -10.60 
USER  keepresnum = 1 
USER  
REMARK  9 active torsions:
REMARK  status: ('A' for Active; 'I' for Inactive)
REMARK    1  A    between atoms: C1_1  and  C2_2 
REMARK    2  A    between atoms: C1_1  and  C3_3 
REMARK    3  A    between atoms: C2_2  and  C4_4 
REMARK    4  A    between atoms: C3_3  and  C5_5 
REMARK    5  A    between atoms: C4_4  and  C6_6 
REMARK    6  A    between atoms: C5_5  and  C7_7 
REMARK    7  A    between atoms: C6_6  and  C8_8 
REMARK    8  A    between atoms: C7_7  and  C9_9 
REMARK    9  A    between atoms: C8_8  and  C10_10 
USER                              x       y       z     vdW  Elec       q    Type
USER                           _______ _______ _______ _____ _____    ______ ____
ROOT
ATOM      1  C1  MOL C   1      27.328  39.632  26.647 -0.54 -0.00    +0.000 C 
ENDROOT
BRANCH   1   2
ATOM      2  C2  MOL C   1      28.842  39.718  26.410 -0.16 -0.00    +0.000 C 
BRANCH   2   3
ATOM      3  C4  MOL C   1      29.533  39.056  27.647 -0.50 -0.00    +0.000 C 
BRANCH   3   4
ATOM      4  C6  MOL C   1      30.293  37.674  27.285 +0.07 -0.00    +0.000 C 
BRANCH   4   5
ATOM      5  C8  MOL C   1      29.536  36.393  27.553 -0.52 +0.00    -0.000 C 
BRANCH   5   6
ATOM      6  C10 MOL C   1      28.083  36.616  27.149 -0.38 +0.00    -0.005 C 
ATOM      7  C12 MOL C   1      27.057  36.602  28.242 -0.17 -0.00    +0.005 C 
ENDBRANCH   5   6
ENDBRANCH   4   5
ENDBRANCH   3   4
ENDBRANCH   2   3
ENDBRANCH   1   2
BRANCH   1   8
ATOM      8  C3  MOL C   1      27.038  40.685  27.790 -0.54 -0.00    +0.000 C 
BRANCH   8   9
ATOM      9  C5  MOL C   1      26.663  39.870  29.172 -0.10 -0.00    +0.000 C 
BRANCH   9  10
ATOM     10  C7  MOL C   1      27.853  39.587  30.163 +0.03 +0.00    -0.000 C 
BRANCH  10  11
ATOM     11  C9  MOL C   1      28.181  40.750  31.163 -0.73 +0.00    -0.005 C 
ATOM     12  C11 MOL C   1      29.734  40.740  31.386 -0.64 -0.00    +0.005 C 
ENDBRANCH  10  11
ENDBRANCH   9  10
ENDBRANCH   8   9
ENDBRANCH   1   8
TORSDOF 9
TER
ENDMDL
MODEL       92
USER    Run = 92
USER    DPF = lac1.dpf
USER  
USER    Estimated Free Energy of Binding    =   -1.11 kcal/mol  [=(1)+(2)+(3)-(4)]
USER    Estimated Inhibition Constant, Ki   =  154.27 mM (millimolar)  [Temperature = 298.15 K]
USER    
USER    (1) Final Intermolecular Energy     =   -4.28 kcal/mol
USER        vdW + Hbond + desolv Energy     =   -4.28 kcal/mol
USER        Electrostatic Energy            =   +0.00 kcal/mol
USER    (2) Final Total Internal Energy     =   +0.20 kcal/mol
USER    (3) Torsional Free Energy           =   +2.68 kcal/mol
USER    (4) Unbound System's Energy         =   -0.29 kcal/mol
USER    
USER    
USER    NEWDPF move PE_ligand.pdbqt
USER    NEWDPF about 3.037000 5.209000 3.149000
USER    NEWDPF tran0 27.485734 38.652915 27.544974
USER    NEWDPF quaternion0 0.496567 0.800565 -0.335070 -0.015611
USER    NEWDPF axisangle0 0.496628 0.800663 -0.335111 -178.211071
USER    NEWDPF quat0 0.496628 0.800663 -0.335111 -178.211071
USER    NEWDPF dihe0 28.86 -119.08 110.20 115.60 -36.65 13.45 -143.29 60.05 15.03 
USER  keepresnum = 1 
USER  
REMARK  9 active torsions:
REMARK  status: ('A' for Active; 'I' for Inactive)
REMARK    1  A    between atoms: C1_1  and  C2_2 
REMARK    2  A    between atoms: C1_1  and  C3_3 
REMARK    3  A    between atoms: C2_2  and  C4_4 
REMARK    4  A    between atoms: C3_3  and  C5_5 
REMARK    5  A    between atoms: C4_4  and  C6_6 
REMARK    6  A    between atoms: C5_5  and  C7_7 
REMARK    7  A    between atoms: C6_6  and  C8_8 
REMARK    8  A    between atoms: C7_7  and  C9_9 
REMARK    9  A    between atoms: C8_8  and  C10_10 
USER                              x       y       z     vdW  Elec       q    Type
USER                           _______ _______ _______ _____ _____    ______ ____
ROOT
ATOM      1  C1  MOL C   1      28.014  38.396  26.539 -0.43 -0.00    +0.000 C 
ENDROOT
BRANCH   1   2
ATOM      2  C2  MOL C   1      26.884  39.414  26.749 -0.49 -0.00    +0.000 C 
BRANCH   2   3
ATOM      3  C4  MOL C   1      27.105  40.051  28.160 -0.59 -0.00    +0.000 C 
BRANCH   3   4
ATOM      4  C6  MOL C   1      28.659  40.374  28.473 -0.34 -0.00    +0.000 C 
BRANCH   4   5
ATOM      5  C8  MOL C   1      29.228  39.797  29.750 -0.55 +0.00    -0.000 C 
BRANCH   5   6
ATOM      6  C10 MOL C   1      28.806  40.704  30.901 -0.65 +0.00    -0.005 C 
ATOM      7  C12 MOL C   1      27.452  40.465  31.500 -0.33 -0.00    +0.005 C 
ENDBRANCH   5   6
ENDBRANCH   4   5
ENDBRANCH   3   4
ENDBRANCH   2   3
ENDBRANCH   1   2
BRANCH   1   8
ATOM      8  C3  MOL C   1      27.376  37.000  26.919 +0.29 -0.00    +0.000 C 
BRANCH   8   9
ATOM      9  C5  MOL C   1      27.731  36.672  28.494 -0.29 -0.00    +0.000 C 
BRANCH   9  10
ATOM     10  C7  MOL C   1      29.222  36.908  28.939 -0.26 +0.00    -0.000 C 
BRANCH  10  11
ATOM     11  C9  MOL C   1      30.307  36.254  28.014 -0.57 +0.00    -0.005 C 
ATOM     12  C11 MOL C   1      30.381  37.120  26.709 -0.05 -0.00    +0.005 C 
ENDBRANCH  10  11
ENDBRANCH   9  10
ENDBRANCH   8   9
ENDBRANCH   1   8
TORSDOF 9
TER
ENDMDL
MODEL       93
USER    Run = 93
USER    DPF = lac1.dpf
USER  
USER    Estimated Free Energy of Binding    =   -0.24 kcal/mol  [=(1)+(2)+(3)-(4)]
USER    Estimated Inhibition Constant, Ki   =  670.82 mM (millimolar)  [Temperature = 298.15 K]
USER    
USER    (1) Final Intermolecular Energy     =   -3.95 kcal/mol
USER        vdW + Hbond + desolv Energy     =   -3.95 kcal/mol
USER        Electrostatic Energy            =   +0.00 kcal/mol
USER    (2) Final Total Internal Energy     =   +0.74 kcal/mol
USER    (3) Torsional Free Energy           =   +2.68 kcal/mol
USER    (4) Unbound System's Energy         =   -0.29 kcal/mol
USER    
USER    
USER    NEWDPF move PE_ligand.pdbqt
USER    NEWDPF about 3.037000 5.209000 3.149000
USER    NEWDPF tran0 27.419220 38.354998 28.528702
USER    NEWDPF quaternion0 -0.755516 0.546278 0.334823 0.136639
USER    NEWDPF axisangle0 -0.762669 0.551450 0.337993 164.293137
USER    NEWDPF quat0 -0.762669 0.551450 0.337993 164.293137
USER    NEWDPF dihe0 16.24 -139.64 -153.10 25.16 145.52 89.46 -101.44 53.35 -89.09 
USER  keepresnum = 1 
USER  
REMARK  9 active torsions:
REMARK  status: ('A' for Active; 'I' for Inactive)
REMARK    1  A    between atoms: C1_1  and  C2_2 
REMARK    2  A    between atoms: C1_1  and  C3_3 
REMARK    3  A    between atoms: C2_2  and  C4_4 
REMARK    4  A    between atoms: C3_3  and  C5_5 
REMARK    5  A    between atoms: C4_4  and  C6_6 
REMARK    6  A    between atoms: C5_5  and  C7_7 
REMARK    7  A    between atoms: C6_6  and  C8_8 
REMARK    8  A    between atoms: C7_7  and  C9_9 
REMARK    9  A    between atoms: C8_8  and  C10_10 
USER                              x       y       z     vdW  Elec       q    Type
USER                           _______ _______ _______ _____ _____    ______ ____
ROOT
ATOM      1  C1  MOL C   1      26.259  38.255  28.509 +0.46 -0.00    +0.000 C 
ENDROOT
BRANCH   1   2
ATOM      2  C2  MOL C   1      27.275  37.274  27.906 -0.36 -0.00    +0.000 C 
BRANCH   2   3
ATOM      3  C4  MOL C   1      27.926  37.994  26.679 -0.40 -0.00    +0.000 C 
BRANCH   3   4
ATOM      4  C6  MOL C   1      29.142  38.978  27.094 -0.45 -0.00    +0.000 C 
BRANCH   4   5
ATOM      5  C8  MOL C   1      30.277  38.360  27.879 -0.08 +0.00    -0.000 C 
BRANCH   5   6
ATOM      6  C10 MOL C   1      30.170  36.845  27.741 -0.49 +0.00    -0.005 C 
ATOM      7  C12 MOL C   1      30.520  36.251  26.409 -0.43 -0.00    +0.005 C 
ENDBRANCH   5   6
ENDBRANCH   4   5
ENDBRANCH   3   4
ENDBRANCH   2   3
ENDBRANCH   1   2
BRANCH   1   8
ATOM      8  C3  MOL C   1      26.468  39.599  27.704 -0.52 -0.00    +0.000 C 
BRANCH   8   9
ATOM      9  C5  MOL C   1      27.354  40.634  28.630 -0.41 -0.00    +0.000 C 
BRANCH   9  10
ATOM     10  C7  MOL C   1      28.372  39.978  29.634 -0.64 +0.00    -0.000 C 
BRANCH  10  11
ATOM     11  C9  MOL C   1      28.469  40.672  31.037 -0.70 +0.00    -0.005 C 
ATOM     12  C11 MOL C   1      27.012  40.746  31.615 +0.09 -0.00    +0.005 C 
ENDBRANCH  10  11
ENDBRANCH   9  10
ENDBRANCH   8   9
ENDBRANCH   1   8
TORSDOF 9
TER
ENDMDL
MODEL       94
USER    Run = 94
USER    DPF = lac1.dpf
USER  
USER    Estimated Free Energy of Binding    =   -3.17 kcal/mol  [=(1)+(2)+(3)-(4)]
USER    Estimated Inhibition Constant, Ki   =    4.71 mM (millimolar)  [Temperature = 298.15 K]
USER    
USER    (1) Final Intermolecular Energy     =   -5.58 kcal/mol
USER        vdW + Hbond + desolv Energy     =   -5.57 kcal/mol
USER        Electrostatic Energy            =   -0.00 kcal/mol
USER    (2) Final Total Internal Energy     =   -0.57 kcal/mol
USER    (3) Torsional Free Energy           =   +2.68 kcal/mol
USER    (4) Unbound System's Energy         =   -0.29 kcal/mol
USER    
USER    
USER    NEWDPF move PE_ligand.pdbqt
USER    NEWDPF about 3.037000 5.209000 3.149000
USER    NEWDPF tran0 27.452355 38.900126 27.623811
USER    NEWDPF quaternion0 0.437316 0.466556 -0.629755 0.441010
USER    NEWDPF axisangle0 0.487259 0.519838 -0.701675 127.663327
USER    NEWDPF quat0 0.487259 0.519838 -0.701675 127.663327
USER    NEWDPF dihe0 120.84 5.56 -122.86 68.49 8.08 138.17 108.68 19.88 23.90 
USER  keepresnum = 1 
USER  
REMARK  9 active torsions:
REMARK  status: ('A' for Active; 'I' for Inactive)
REMARK    1  A    between atoms: C1_1  and  C2_2 
REMARK    2  A    between atoms: C1_1  and  C3_3 
REMARK    3  A    between atoms: C2_2  and  C4_4 
REMARK    4  A    between atoms: C3_3  and  C5_5 
REMARK    5  A    between atoms: C4_4  and  C6_6 
REMARK    6  A    between atoms: C5_5  and  C7_7 
REMARK    7  A    between atoms: C6_6  and  C8_8 
REMARK    8  A    between atoms: C7_7  and  C9_9 
REMARK    9  A    between atoms: C8_8  and  C10_10 
USER                              x       y       z     vdW  Elec       q    Type
USER                           _______ _______ _______ _____ _____    ______ ____
ROOT
ATOM      1  C1  MOL C   1      26.618  38.488  26.924 -0.33 -0.00    +0.000 C 
ENDROOT
BRANCH   1   2
ATOM      2  C2  MOL C   1      26.792  39.941  27.387 -0.56 -0.00    +0.000 C 
BRANCH   2   3
ATOM      3  C4  MOL C   1      28.317  40.272  27.276 -0.54 -0.00    +0.000 C 
BRANCH   3   4
ATOM      4  C6  MOL C   1      29.225  39.429  28.317 -0.62 -0.00    +0.000 C 
BRANCH   4   5
ATOM      5  C8  MOL C   1      29.296  39.952  29.734 -0.55 +0.00    -0.000 C 
BRANCH   5   6
ATOM      6  C10 MOL C   1      27.876  40.287  30.178 -0.58 +0.00    -0.005 C 
ATOM      7  C12 MOL C   1      27.692  40.750  31.592 -0.69 -0.00    +0.005 C 
ENDBRANCH   5   6
ENDBRANCH   4   5
ENDBRANCH   3   4
ENDBRANCH   2   3
ENDBRANCH   1   2
BRANCH   1   8
ATOM      8  C3  MOL C   1      26.341  37.672  28.249 -0.03 -0.00    +0.000 C 
BRANCH   8   9
ATOM      9  C5  MOL C   1      27.253  36.300  28.221 -0.28 -0.00    +0.000 C 
BRANCH   9  10
ATOM     10  C7  MOL C   1      28.775  36.463  28.590 -0.54 +0.00    -0.000 C 
BRANCH  10  11
ATOM     11  C9  MOL C   1      29.749  36.590  27.367 -0.51 +0.00    -0.005 C 
ATOM     12  C11 MOL C   1      31.189  36.251  27.890 -0.34 -0.00    +0.005 C 
ENDBRANCH  10  11
ENDBRANCH   9  10
ENDBRANCH   8   9
ENDBRANCH   1   8
TORSDOF 9
TER
ENDMDL
MODEL       95
USER    Run = 95
USER    DPF = lac1.dpf
USER  
USER    Estimated Free Energy of Binding    =   -2.44 kcal/mol  [=(1)+(2)+(3)-(4)]
USER    Estimated Inhibition Constant, Ki   =   16.24 mM (millimolar)  [Temperature = 298.15 K]
USER    
USER    (1) Final Intermolecular Energy     =   -4.86 kcal/mol
USER        vdW + Hbond + desolv Energy     =   -4.86 kcal/mol
USER        Electrostatic Energy            =   -0.00 kcal/mol
USER    (2) Final Total Internal Energy     =   -0.56 kcal/mol
USER    (3) Torsional Free Energy           =   +2.68 kcal/mol
USER    (4) Unbound System's Energy         =   -0.29 kcal/mol
USER    
USER    
USER    NEWDPF move PE_ligand.pdbqt
USER    NEWDPF about 3.037000 5.209000 3.149000
USER    NEWDPF tran0 27.957366 39.213836 27.361748
USER    NEWDPF quaternion0 0.662065 0.671664 -0.325100 -0.069620
USER    NEWDPF axisangle0 0.663675 0.673298 -0.325891 -172.015715
USER    NEWDPF quat0 0.663675 0.673298 -0.325891 -172.015715
USER    NEWDPF dihe0 62.59 154.92 -147.39 82.86 -159.60 95.72 111.58 -1.37 14.55 
USER  keepresnum = 1 
USER  
REMARK  9 active torsions:
REMARK  status: ('A' for Active; 'I' for Inactive)
REMARK    1  A    between atoms: C1_1  and  C2_2 
REMARK    2  A    between atoms: C1_1  and  C3_3 
REMARK    3  A    between atoms: C2_2  and  C4_4 
REMARK    4  A    between atoms: C3_3  and  C5_5 
REMARK    5  A    between atoms: C4_4  and  C6_6 
REMARK    6  A    between atoms: C5_5  and  C7_7 
REMARK    7  A    between atoms: C6_6  and  C8_8 
REMARK    8  A    between atoms: C7_7  and  C9_9 
REMARK    9  A    between atoms: C8_8  and  C10_10 
USER                              x       y       z     vdW  Elec       q    Type
USER                           _______ _______ _______ _____ _____    ______ ____
ROOT
ATOM      1  C1  MOL C   1      28.534  38.643  26.526 -0.47 -0.00    +0.000 C 
ENDROOT
BRANCH   1   2
ATOM      2  C2  MOL C   1      27.829  40.001  26.392 -0.54 -0.00    +0.000 C 
BRANCH   2   3
ATOM      3  C4  MOL C   1      27.989  40.731  27.766 -0.39 -0.00    +0.000 C 
BRANCH   3   4
ATOM      4  C6  MOL C   1      27.247  39.961  28.982 -0.57 -0.00    +0.000 C 
BRANCH   4   5
ATOM      5  C8  MOL C   1      28.137  39.325  30.026 +0.03 +0.00    -0.000 C 
BRANCH   5   6
ATOM      6  C10 MOL C   1      29.494  40.019  29.968 -0.44 +0.00    -0.005 C 
ATOM      7  C12 MOL C   1      29.945  40.746  31.199 -0.55 -0.00    +0.005 C 
ENDBRANCH   5   6
ENDBRANCH   4   5
ENDBRANCH   3   4
ENDBRANCH   2   3
ENDBRANCH   1   2
BRANCH   1   8
ATOM      8  C3  MOL C   1      27.377  37.619  26.859 -0.21 -0.00    +0.000 C 
BRANCH   8   9
ATOM      9  C5  MOL C   1      28.032  36.319  27.630 -0.44 -0.00    +0.000 C 
BRANCH   9  10
ATOM     10  C7  MOL C   1      29.222  36.617  28.617 -0.53 +0.00    -0.000 C 
BRANCH  10  11
ATOM     11  C9  MOL C   1      30.631  36.755  27.943 -0.31 +0.00    -0.005 C 
ATOM     12  C11 MOL C   1      30.484  36.251  26.465 -0.44 -0.00    +0.005 C 
ENDBRANCH  10  11
ENDBRANCH   9  10
ENDBRANCH   8   9
ENDBRANCH   1   8
TORSDOF 9
TER
ENDMDL
MODEL       96
USER    Run = 96
USER    DPF = lac1.dpf
USER  
USER    Estimated Free Energy of Binding    =   -0.61 kcal/mol  [=(1)+(2)+(3)-(4)]
USER    Estimated Inhibition Constant, Ki   =  357.87 mM (millimolar)  [Temperature = 298.15 K]
USER    
USER    (1) Final Intermolecular Energy     =   -4.17 kcal/mol
USER        vdW + Hbond + desolv Energy     =   -4.17 kcal/mol
USER        Electrostatic Energy            =   +0.00 kcal/mol
USER    (2) Final Total Internal Energy     =   +0.59 kcal/mol
USER    (3) Torsional Free Energy           =   +2.68 kcal/mol
USER    (4) Unbound System's Energy         =   -0.29 kcal/mol
USER    
USER    
USER    NEWDPF move PE_ligand.pdbqt
USER    NEWDPF about 3.037000 5.209000 3.149000
USER    NEWDPF tran0 29.144418 38.861861 27.827412
USER    NEWDPF quaternion0 0.202241 0.382903 0.506103 0.745884
USER    NEWDPF axisangle0 0.303631 0.574865 0.759828 83.529861
USER    NEWDPF quat0 0.303631 0.574865 0.759828 83.529861
USER    NEWDPF dihe0 -45.50 -81.67 -86.64 84.74 72.64 116.56 54.87 -162.73 31.21 
USER  keepresnum = 1 
USER  
REMARK  9 active torsions:
REMARK  status: ('A' for Active; 'I' for Inactive)
REMARK    1  A    between atoms: C1_1  and  C2_2 
REMARK    2  A    between atoms: C1_1  and  C3_3 
REMARK    3  A    between atoms: C2_2  and  C4_4 
REMARK    4  A    between atoms: C3_3  and  C5_5 
REMARK    5  A    between atoms: C4_4  and  C6_6 
REMARK    6  A    between atoms: C5_5  and  C7_7 
REMARK    7  A    between atoms: C6_6  and  C8_8 
REMARK    8  A    between atoms: C7_7  and  C9_9 
REMARK    9  A    between atoms: C8_8  and  C10_10 
USER                              x       y       z     vdW  Elec       q    Type
USER                           _______ _______ _______ _____ _____    ______ ____
ROOT
ATOM      1  C1  MOL C   1      29.643  39.806  28.293 -0.21 -0.00    +0.000 C 
ENDROOT
BRANCH   1   2
ATOM      2  C2  MOL C   1      29.367  38.472  29.000 -0.29 -0.00    +0.000 C 
BRANCH   2   3
ATOM      3  C4  MOL C   1      29.948  37.345  28.083 -0.48 -0.00    +0.000 C 
BRANCH   3   4
ATOM      4  C6  MOL C   1      28.829  36.279  27.604 -0.49 -0.00    +0.000 C 
BRANCH   4   5
ATOM      5  C8  MOL C   1      27.530  36.264  28.378 -0.39 +0.00    -0.000 C 
BRANCH   5   6
ATOM      6  C10 MOL C   1      26.645  37.377  27.827 -0.03 +0.00    -0.005 C 
ATOM      7  C12 MOL C   1      27.096  38.049  26.565 -0.18 -0.00    +0.005 C 
ENDBRANCH   5   6
ENDBRANCH   4   5
ENDBRANCH   3   4
ENDBRANCH   2   3
ENDBRANCH   1   2
BRANCH   1   8
ATOM      8  C3  MOL C   1      28.214  40.366  27.913 -0.59 -0.00    +0.000 C 
BRANCH   8   9
ATOM      9  C5  MOL C   1      27.198  40.120  29.187 -0.46 -0.00    +0.000 C 
BRANCH   9  10
ATOM     10  C7  MOL C   1      27.637  40.748  30.562 -0.39 +0.00    -0.000 C 
BRANCH  10  11
ATOM     11  C9  MOL C   1      28.695  39.917  31.369 -0.09 +0.00    -0.005 C 
ATOM     12  C11 MOL C   1      30.028  40.745  31.367 -0.57 -0.00    +0.005 C 
ENDBRANCH  10  11
ENDBRANCH   9  10
ENDBRANCH   8   9
ENDBRANCH   1   8
TORSDOF 9
TER
ENDMDL
MODEL       97
USER    Run = 97
USER    DPF = lac1.dpf
USER  
USER    Estimated Free Energy of Binding    =   -0.04 kcal/mol  [=(1)+(2)+(3)-(4)]
USER    Estimated Inhibition Constant, Ki   =  937.85 mM (millimolar)  [Temperature = 298.15 K]
USER    
USER    (1) Final Intermolecular Energy     =   -3.48 kcal/mol
USER        vdW + Hbond + desolv Energy     =   -3.48 kcal/mol
USER        Electrostatic Energy            =   +0.00 kcal/mol
USER    (2) Final Total Internal Energy     =   +0.47 kcal/mol
USER    (3) Torsional Free Energy           =   +2.68 kcal/mol
USER    (4) Unbound System's Energy         =   -0.29 kcal/mol
USER    
USER    
USER    NEWDPF move PE_ligand.pdbqt
USER    NEWDPF about 3.037000 5.209000 3.149000
USER    NEWDPF tran0 28.782298 38.241018 27.680528
USER    NEWDPF quaternion0 0.246372 -0.537988 0.047503 0.804744
USER    NEWDPF axisangle0 0.415032 -0.906281 0.080023 72.828828
USER    NEWDPF quat0 0.415032 -0.906281 0.080023 72.828828
USER    NEWDPF dihe0 -170.95 156.87 156.42 105.76 173.59 180.00 -176.48 -46.13 -16.60 
USER  keepresnum = 1 
USER  
REMARK  9 active torsions:
REMARK  status: ('A' for Active; 'I' for Inactive)
REMARK    1  A    between atoms: C1_1  and  C2_2 
REMARK    2  A    between atoms: C1_1  and  C3_3 
REMARK    3  A    between atoms: C2_2  and  C4_4 
REMARK    4  A    between atoms: C3_3  and  C5_5 
REMARK    5  A    between atoms: C4_4  and  C6_6 
REMARK    6  A    between atoms: C5_5  and  C7_7 
REMARK    7  A    between atoms: C6_6  and  C8_8 
REMARK    8  A    between atoms: C7_7  and  C9_9 
REMARK    9  A    between atoms: C8_8  and  C10_10 
USER                              x       y       z     vdW  Elec       q    Type
USER                           _______ _______ _______ _____ _____    ______ ____
ROOT
ATOM      1  C1  MOL C   1      29.246  39.307  27.607 -0.55 -0.00    +0.000 C 
ENDROOT
BRANCH   1   2
ATOM      2  C2  MOL C   1      29.589  38.094  26.730 -0.31 -0.00    +0.000 C 
BRANCH   2   3
ATOM      3  C4  MOL C   1      28.644  36.931  27.177 -0.45 -0.00    +0.000 C 
BRANCH   3   4
ATOM      4  C6  MOL C   1      27.505  37.406  28.223 -0.34 -0.00    +0.000 C 
BRANCH   4   5
ATOM      5  C8  MOL C   1      26.251  38.011  27.633 -0.13 +0.00    -0.000 C 
BRANCH   5   6
ATOM      6  C10 MOL C   1      26.651  38.788  26.383 -0.36 +0.00    -0.005 C 
ATOM      7  C12 MOL C   1      26.448  40.273  26.406 -0.52 -0.00    +0.005 C 
ENDBRANCH   5   6
ENDBRANCH   4   5
ENDBRANCH   3   4
ENDBRANCH   2   3
ENDBRANCH   1   2
BRANCH   1   8
ATOM      8  C3  MOL C   1      29.674  38.883  29.069 +0.13 -0.00    +0.000 C 
BRANCH   8   9
ATOM      9  C5  MOL C   1      29.890  40.245  29.970 +0.20 -0.00    +0.000 C 
BRANCH   9  10
ATOM     10  C7  MOL C   1      28.985  40.387  31.250 -0.69 +0.00    -0.000 C 
BRANCH  10  11
ATOM     11  C9  MOL C   1      27.440  40.398  30.978 -0.37 +0.00    -0.005 C 
ATOM     12  C11 MOL C   1      27.247  40.509  29.425 -0.07 -0.00    +0.005 C 
ENDBRANCH  10  11
ENDBRANCH   9  10
ENDBRANCH   8   9
ENDBRANCH   1   8
TORSDOF 9
TER
ENDMDL
MODEL       98
USER    Run = 98
USER    DPF = lac1.dpf
USER  
USER    Estimated Free Energy of Binding    =   -1.52 kcal/mol  [=(1)+(2)+(3)-(4)]
USER    Estimated Inhibition Constant, Ki   =   77.37 mM (millimolar)  [Temperature = 298.15 K]
USER    
USER    (1) Final Intermolecular Energy     =   -4.33 kcal/mol
USER        vdW + Hbond + desolv Energy     =   -4.33 kcal/mol
USER        Electrostatic Energy            =   -0.00 kcal/mol
USER    (2) Final Total Internal Energy     =   -0.15 kcal/mol
USER    (3) Torsional Free Energy           =   +2.68 kcal/mol
USER    (4) Unbound System's Energy         =   -0.29 kcal/mol
USER    
USER    
USER    NEWDPF move PE_ligand.pdbqt
USER    NEWDPF about 3.037000 5.209000 3.149000
USER    NEWDPF tran0 27.462424 39.389164 26.375000
USER    NEWDPF quaternion0 -0.098001 0.039414 0.049968 -0.993149
USER    NEWDPF axisangle0 -0.838672 0.337299 0.427620 -13.420974
USER    NEWDPF quat0 -0.838672 0.337299 0.427620 -13.420974
USER    NEWDPF dihe0 -3.44 27.80 -155.94 86.09 -167.31 26.80 17.18 -99.61 -50.37 
USER  keepresnum = 1 
USER  
REMARK  9 active torsions:
REMARK  status: ('A' for Active; 'I' for Inactive)
REMARK    1  A    between atoms: C1_1  and  C2_2 
REMARK    2  A    between atoms: C1_1  and  C3_3 
REMARK    3  A    between atoms: C2_2  and  C4_4 
REMARK    4  A    between atoms: C3_3  and  C5_5 
REMARK    5  A    between atoms: C4_4  and  C6_6 
REMARK    6  A    between atoms: C5_5  and  C7_7 
REMARK    7  A    between atoms: C6_6  and  C8_8 
REMARK    8  A    between atoms: C7_7  and  C9_9 
REMARK    9  A    between atoms: C8_8  and  C10_10 
USER                              x       y       z     vdW  Elec       q    Type
USER                           _______ _______ _______ _____ _____    ______ ____
ROOT
ATOM      1  C1  MOL C   1      27.312  40.386  26.959 -0.54 -0.00    +0.000 C 
ENDROOT
BRANCH   1   2
ATOM      2  C2  MOL C   1      28.650  39.715  26.616 -0.44 -0.00    +0.000 C 
BRANCH   2   3
ATOM      3  C4  MOL C   1      28.390  38.173  26.585 -0.44 -0.00    +0.000 C 
BRANCH   3   4
ATOM      4  C6  MOL C   1      29.735  37.299  26.797 -0.44 -0.00    +0.000 C 
BRANCH   4   5
ATOM      5  C8  MOL C   1      29.934  36.679  28.161 -0.54 +0.00    -0.000 C 
BRANCH   5   6
ATOM      6  C10 MOL C   1      28.613  36.777  28.916 -0.35 +0.00    -0.005 C 
ATOM      7  C12 MOL C   1      27.389  36.254  28.226 -0.40 -0.00    +0.005 C 
ENDBRANCH   5   6
ENDBRANCH   4   5
ENDBRANCH   3   4
ENDBRANCH   2   3
ENDBRANCH   1   2
BRANCH   1   8
ATOM      8  C3  MOL C   1      26.576  39.357  27.907 -0.51 -0.00    +0.000 C 
BRANCH   8   9
ATOM      9  C5  MOL C   1      26.642  39.925  29.452 +0.33 -0.00    +0.000 C 
BRANCH   9  10
ATOM     10  C7  MOL C   1      27.927  40.748  29.841 +0.01 +0.00    -0.000 C 
BRANCH  10  11
ATOM     11  C9  MOL C   1      29.196  39.888  30.173 -0.50 +0.00    -0.005 C 
ATOM     12  C11 MOL C   1      29.886  40.549  31.417 -0.52 -0.01    +0.005 C 
ENDBRANCH  10  11
ENDBRANCH   9  10
ENDBRANCH   8   9
ENDBRANCH   1   8
TORSDOF 9
TER
ENDMDL
MODEL       99
USER    Run = 99
USER    DPF = lac1.dpf
USER  
USER    Estimated Free Energy of Binding    =   +0.82 kcal/mol  [=(1)+(2)+(3)-(4)]
USER    
USER    (1) Final Intermolecular Energy     =   -2.55 kcal/mol
USER        vdW + Hbond + desolv Energy     =   -2.55 kcal/mol
USER        Electrostatic Energy            =   +0.00 kcal/mol
USER    (2) Final Total Internal Energy     =   +0.40 kcal/mol
USER    (3) Torsional Free Energy           =   +2.68 kcal/mol
USER    (4) Unbound System's Energy         =   -0.29 kcal/mol
USER    
USER    
USER    NEWDPF move PE_ligand.pdbqt
USER    NEWDPF about 3.037000 5.209000 3.149000
USER    NEWDPF tran0 28.554870 39.107519 27.753814
USER    NEWDPF quaternion0 -0.204451 0.811849 -0.240296 -0.491282
USER    NEWDPF axisangle0 -0.234732 0.932088 -0.275885 -121.150202
USER    NEWDPF quat0 -0.234732 0.932088 -0.275885 -121.150202
USER    NEWDPF dihe0 -172.02 95.80 -121.65 -84.58 108.81 5.13 -85.89 75.02 -129.68 
USER  keepresnum = 1 
USER  
REMARK  9 active torsions:
REMARK  status: ('A' for Active; 'I' for Inactive)
REMARK    1  A    between atoms: C1_1  and  C2_2 
REMARK    2  A    between atoms: C1_1  and  C3_3 
REMARK    3  A    between atoms: C2_2  and  C4_4 
REMARK    4  A    between atoms: C3_3  and  C5_5 
REMARK    5  A    between atoms: C4_4  and  C6_6 
REMARK    6  A    between atoms: C5_5  and  C7_7 
REMARK    7  A    between atoms: C6_6  and  C8_8 
REMARK    8  A    between atoms: C7_7  and  C9_9 
REMARK    9  A    between atoms: C8_8  and  C10_10 
USER                              x       y       z     vdW  Elec       q    Type
USER                           _______ _______ _______ _____ _____    ______ ____
ROOT
ATOM      1  C1  MOL C   1      29.198  39.728  27.007 -0.09 -0.00    +0.000 C 
ENDROOT
BRANCH   1   2
ATOM      2  C2  MOL C   1      28.368  38.477  26.684 -0.46 -0.00    +0.000 C 
BRANCH   2   3
ATOM      3  C4  MOL C   1      29.383  37.327  26.379 -0.43 -0.00    +0.000 C 
BRANCH   3   4
ATOM      4  C6  MOL C   1      29.629  36.347  27.644 -0.53 -0.00    +0.000 C 
BRANCH   4   5
ATOM      5  C8  MOL C   1      28.578  36.365  28.731 -0.52 +0.00    -0.000 C 
BRANCH   5   6
ATOM      6  C10 MOL C   1      27.213  36.257  28.061 -0.15 +0.00    -0.005 C 
ATOM      7  C12 MOL C   1      26.280  37.421  28.217 +0.16 -0.00    +0.005 C 
ENDBRANCH   5   6
ENDBRANCH   4   5
ENDBRANCH   3   4
ENDBRANCH   2   3
ENDBRANCH   1   2
BRANCH   1   8
ATOM      8  C3  MOL C   1      30.300  39.231  28.026 +0.03 -0.00    +0.000 C 
BRANCH   8   9
ATOM      9  C5  MOL C   1      29.624  39.134  29.525 +0.39 -0.00    +0.000 C 
BRANCH   9  10
ATOM     10  C7  MOL C   1      28.921  40.437  30.061 -0.35 +0.00    -0.000 C 
BRANCH  10  11
ATOM     11  C9  MOL C   1      27.357  40.363  30.151 -0.30 +0.00    -0.005 C 
ATOM     12  C11 MOL C   1      26.812  40.370  28.680 -0.29 -0.00    +0.005 C 
ENDBRANCH  10  11
ENDBRANCH   9  10
ENDBRANCH   8   9
ENDBRANCH   1   8
TORSDOF 9
TER
ENDMDL
MODEL      100
USER    Run = 100
USER    DPF = lac1.dpf
USER  
USER    Estimated Free Energy of Binding    =   +1.72 kcal/mol  [=(1)+(2)+(3)-(4)]
USER    
USER    (1) Final Intermolecular Energy     =   -1.50 kcal/mol
USER        vdW + Hbond + desolv Energy     =   -1.51 kcal/mol
USER        Electrostatic Energy            =   +0.00 kcal/mol
USER    (2) Final Total Internal Energy     =   +0.25 kcal/mol
USER    (3) Torsional Free Energy           =   +2.68 kcal/mol
USER    (4) Unbound System's Energy         =   -0.29 kcal/mol
USER    
USER    
USER    NEWDPF move PE_ligand.pdbqt
USER    NEWDPF about 3.037000 5.209000 3.149000
USER    NEWDPF tran0 26.323749 39.114795 28.089309
USER    NEWDPF quaternion0 -0.186595 0.592859 0.180750 -0.762253
USER    NEWDPF axisangle0 -0.288276 0.915925 0.279247 -80.673508
USER    NEWDPF quat0 -0.288276 0.915925 0.279247 -80.673508
USER    NEWDPF dihe0 -152.86 -136.84 159.13 154.19 -161.13 -75.54 22.10 -30.67 -29.74 
USER  keepresnum = 1 
USER  
REMARK  9 active torsions:
REMARK  status: ('A' for Active; 'I' for Inactive)
REMARK    1  A    between atoms: C1_1  and  C2_2 
REMARK    2  A    between atoms: C1_1  and  C3_3 
REMARK    3  A    between atoms: C2_2  and  C4_4 
REMARK    4  A    between atoms: C3_3  and  C5_5 
REMARK    5  A    between atoms: C4_4  and  C6_6 
REMARK    6  A    between atoms: C5_5  and  C7_7 
REMARK    7  A    between atoms: C6_6  and  C8_8 
REMARK    8  A    between atoms: C7_7  and  C9_9 
REMARK    9  A    between atoms: C8_8  and  C10_10 
USER                              x       y       z     vdW  Elec       q    Type
USER                           _______ _______ _______ _____ _____    ______ ____
ROOT
ATOM      1  C1  MOL C   1      26.498  40.246  28.306 -0.38 -0.00    +0.000 C 
ENDROOT
BRANCH   1   2
ATOM      2  C2  MOL C   1      26.846  39.495  27.013 -0.51 -0.00    +0.000 C 
BRANCH   2   3
ATOM      3  C4  MOL C   1      26.667  37.971  27.312 -0.12 -0.00    +0.000 C 
BRANCH   3   4
ATOM      4  C6  MOL C   1      27.596  37.028  26.380 +0.30 -0.00    +0.000 C 
BRANCH   4   5
ATOM      5  C8  MOL C   1      28.750  36.328  27.060 -0.45 +0.00    -0.000 C 
BRANCH   5   6
ATOM      6  C10 MOL C   1      29.238  37.225  28.193 -0.52 +0.00    -0.005 C 
ATOM      7  C12 MOL C   1      30.421  38.103  27.911 +0.26 -0.00    +0.005 C 
ENDBRANCH   5   6
ENDBRANCH   4   5
ENDBRANCH   3   4
ENDBRANCH   2   3
ENDBRANCH   1   2
BRANCH   1   8
ATOM      8  C3  MOL C   1      27.399  39.575  29.419 -0.28 -0.00    +0.000 C 
BRANCH   8   9
ATOM      9  C5  MOL C   1      27.210  40.414  30.824 +0.12 -0.00    +0.000 C 
BRANCH   9  10
ATOM     10  C7  MOL C   1      28.526  40.747  31.622 -0.78 +0.00    -0.000 C 
BRANCH  10  11
ATOM     11  C9  MOL C   1      29.814  40.002  31.127 +0.07 +0.01    -0.005 C 
ATOM     12  C11 MOL C   1      29.989  40.348  29.607 +0.78 -0.00    +0.005 C 
ENDBRANCH  10  11
ENDBRANCH   9  10
ENDBRANCH   8   9
ENDBRANCH   1   8
TORSDOF 9
TER
ENDMDL
