MODEL        1
USER    Run = 1
USER    DPF = lac2.dpf
USER  
USER    Estimated Free Energy of Binding    =   -4.00 kcal/mol  [=(1)+(2)+(3)-(4)]
USER    Estimated Inhibition Constant, Ki   =    1.17 mM (millimolar)  [Temperature = 298.15 K]
USER    
USER    (1) Final Intermolecular Energy     =   -6.47 kcal/mol
USER        vdW + Hbond + desolv Energy     =   -6.47 kcal/mol
USER        Electrostatic Energy            =   -0.00 kcal/mol
USER    (2) Final Total Internal Energy     =   -0.50 kcal/mol
USER    (3) Torsional Free Energy           =   +2.68 kcal/mol
USER    (4) Unbound System's Energy         =   -0.29 kcal/mol
USER    
USER    
USER    NEWDPF move PE_ligand.pdbqt
USER    NEWDPF about 3.037000 5.209000 3.149000
USER    NEWDPF tran0 30.513805 40.478170 28.003361
USER    NEWDPF quaternion0 0.570487 -0.613825 0.299823 -0.455927
USER    NEWDPF axisangle0 0.640985 -0.689678 0.336873 -125.750862
USER    NEWDPF quat0 0.640985 -0.689678 0.336873 -125.750862
USER    NEWDPF dihe0 62.69 -178.59 -123.91 -28.93 172.68 -110.95 18.05 -6.76 42.89 
USER  keepresnum = 1 
USER  
REMARK  9 active torsions:
REMARK  status: ('A' for Active; 'I' for Inactive)
REMARK    1  A    between atoms: C1_1  and  C2_2 
REMARK    2  A    between atoms: C1_1  and  C3_3 
REMARK    3  A    between atoms: C2_2  and  C4_4 
REMARK    4  A    between atoms: C3_3  and  C5_5 
REMARK    5  A    between atoms: C4_4  and  C6_6 
REMARK    6  A    between atoms: C5_5  and  C7_7 
REMARK    7  A    between atoms: C6_6  and  C8_8 
REMARK    8  A    between atoms: C7_7  and  C9_9 
REMARK    9  A    between atoms: C8_8  and  C10_10 
USER                              x       y       z     vdW  Elec       q    Type
USER                           _______ _______ _______ _____ _____    ______ ____
ROOT
ATOM      1  C1  MOL C   1      29.487  39.999  27.731 -0.46 -0.00    +0.000 C 
ENDROOT
BRANCH   1   2
ATOM      2  C2  MOL C   1      30.369  39.657  28.941 -0.44 -0.00    +0.000 C 
BRANCH   2   3
ATOM      3  C4  MOL C   1      30.472  40.954  29.808 -0.33 -0.00    +0.000 C 
BRANCH   3   4
ATOM      4  C6  MOL C   1      31.776  40.974  30.766 -0.37 -0.00    +0.000 C 
BRANCH   4   5
ATOM      5  C8  MOL C   1      33.072  41.436  30.138 -0.55 +0.00    -0.000 C 
BRANCH   5   6
ATOM      6  C10 MOL C   1      32.776  42.692  29.327 -0.64 +0.00    -0.005 C 
ATOM      7  C12 MOL C   1      33.473  43.954  29.739 -0.63 -0.00    +0.005 C 
ENDBRANCH   5   6
ENDBRANCH   4   5
ENDBRANCH   3   4
ENDBRANCH   2   3
ENDBRANCH   1   2
BRANCH   1   8
ATOM      8  C3  MOL C   1      30.358  39.602  26.473 -0.44 -0.00    +0.000 C 
BRANCH   8   9
ATOM      9  C5  MOL C   1      29.741  40.362  25.147 -0.55 -0.00    +0.000 C 
BRANCH   9  10
ATOM     10  C7  MOL C   1      30.322  39.919  23.753 -0.69 +0.00    -0.000 C 
BRANCH  10  11
ATOM     11  C9  MOL C   1      29.491  40.380  22.506 -0.67 +0.00    -0.005 C 
ATOM     12  C11 MOL C   1      28.499  41.491  22.999 -0.69 -0.00    +0.005 C 
ENDBRANCH  10  11
ENDBRANCH   9  10
ENDBRANCH   8   9
ENDBRANCH   1   8
TORSDOF 9
TER
ENDMDL
MODEL        2
USER    Run = 2
USER    DPF = lac2.dpf
USER  
USER    Estimated Free Energy of Binding    =   -3.50 kcal/mol  [=(1)+(2)+(3)-(4)]
USER    Estimated Inhibition Constant, Ki   =    2.70 mM (millimolar)  [Temperature = 298.15 K]
USER    
USER    (1) Final Intermolecular Energy     =   -5.54 kcal/mol
USER        vdW + Hbond + desolv Energy     =   -5.53 kcal/mol
USER        Electrostatic Energy            =   -0.00 kcal/mol
USER    (2) Final Total Internal Energy     =   -0.94 kcal/mol
USER    (3) Torsional Free Energy           =   +2.68 kcal/mol
USER    (4) Unbound System's Energy         =   -0.29 kcal/mol
USER    
USER    
USER    NEWDPF move PE_ligand.pdbqt
USER    NEWDPF about 3.037000 5.209000 3.149000
USER    NEWDPF tran0 29.487163 41.964886 29.954568
USER    NEWDPF quaternion0 0.251938 -0.554228 0.164366 -0.776107
USER    NEWDPF axisangle0 0.399520 -0.878888 0.260650 -78.188924
USER    NEWDPF quat0 0.399520 -0.878888 0.260650 -78.188924
USER    NEWDPF dihe0 -91.23 -98.88 94.99 86.03 179.60 -157.65 43.40 55.06 69.33 
USER  keepresnum = 1 
USER  
REMARK  9 active torsions:
REMARK  status: ('A' for Active; 'I' for Inactive)
REMARK    1  A    between atoms: C1_1  and  C2_2 
REMARK    2  A    between atoms: C1_1  and  C3_3 
REMARK    3  A    between atoms: C2_2  and  C4_4 
REMARK    4  A    between atoms: C3_3  and  C5_5 
REMARK    5  A    between atoms: C4_4  and  C6_6 
REMARK    6  A    between atoms: C5_5  and  C7_7 
REMARK    7  A    between atoms: C6_6  and  C8_8 
REMARK    8  A    between atoms: C7_7  and  C9_9 
REMARK    9  A    between atoms: C8_8  and  C10_10 
USER                              x       y       z     vdW  Elec       q    Type
USER                           _______ _______ _______ _____ _____    ______ ____
ROOT
ATOM      1  C1  MOL C   1      28.392  42.251  30.231 -0.36 -0.00    +0.000 C 
ENDROOT
BRANCH   1   2
ATOM      2  C2  MOL C   1      29.506  41.836  31.203 -0.29 -0.00    +0.000 C 
BRANCH   2   3
ATOM      3  C4  MOL C   1      30.264  43.143  31.608 -0.43 -0.00    +0.000 C 
BRANCH   3   4
ATOM      4  C6  MOL C   1      31.873  43.002  31.500 -0.45 -0.00    +0.000 C 
BRANCH   4   5
ATOM      5  C8  MOL C   1      32.499  43.372  30.174 -0.59 +0.00    -0.000 C 
BRANCH   5   6
ATOM      6  C10 MOL C   1      32.675  42.091  29.367 -0.60 +0.00    -0.005 C 
ATOM      7  C12 MOL C   1      33.030  40.847  30.125 -0.51 -0.00    +0.005 C 
ENDBRANCH   5   6
ENDBRANCH   4   5
ENDBRANCH   3   4
ENDBRANCH   2   3
ENDBRANCH   1   2
BRANCH   1   8
ATOM      8  C3  MOL C   1      28.160  40.982  29.318 -0.39 -0.00    +0.000 C 
BRANCH   8   9
ATOM      9  C5  MOL C   1      28.948  41.211  27.889 -0.44 -0.00    +0.000 C 
BRANCH   9  10
ATOM     10  C7  MOL C   1      29.626  39.941  27.253 -0.47 +0.00    -0.000 C 
BRANCH  10  11
ATOM     11  C9  MOL C   1      31.009  39.540  27.874 -0.50 +0.00    -0.005 C 
ATOM     12  C11 MOL C   1      30.723  38.459  28.974 -0.50 -0.00    +0.005 C 
ENDBRANCH  10  11
ENDBRANCH   9  10
ENDBRANCH   8   9
ENDBRANCH   1   8
TORSDOF 9
TER
ENDMDL
MODEL        3
USER    Run = 3
USER    DPF = lac2.dpf
USER  
USER    Estimated Free Energy of Binding    =   -3.37 kcal/mol  [=(1)+(2)+(3)-(4)]
USER    Estimated Inhibition Constant, Ki   =    3.41 mM (millimolar)  [Temperature = 298.15 K]
USER    
USER    (1) Final Intermolecular Energy     =   -5.55 kcal/mol
USER        vdW + Hbond + desolv Energy     =   -5.55 kcal/mol
USER        Electrostatic Energy            =   +0.00 kcal/mol
USER    (2) Final Total Internal Energy     =   -0.78 kcal/mol
USER    (3) Torsional Free Energy           =   +2.68 kcal/mol
USER    (4) Unbound System's Energy         =   -0.29 kcal/mol
USER    
USER    
USER    NEWDPF move PE_ligand.pdbqt
USER    NEWDPF about 3.037000 5.209000 3.149000
USER    NEWDPF tran0 27.744851 42.458593 31.736127
USER    NEWDPF quaternion0 0.073516 -0.852614 -0.141682 0.497564
USER    NEWDPF axisangle0 0.084751 -0.982923 -0.163336 120.322013
USER    NEWDPF quat0 0.084751 -0.982923 -0.163336 120.322013
USER    NEWDPF dihe0 53.73 -129.40 -23.90 -55.96 176.87 -101.99 50.18 -103.63 -51.14 
USER  keepresnum = 1 
USER  
REMARK  9 active torsions:
REMARK  status: ('A' for Active; 'I' for Inactive)
REMARK    1  A    between atoms: C1_1  and  C2_2 
REMARK    2  A    between atoms: C1_1  and  C3_3 
REMARK    3  A    between atoms: C2_2  and  C4_4 
REMARK    4  A    between atoms: C3_3  and  C5_5 
REMARK    5  A    between atoms: C4_4  and  C6_6 
REMARK    6  A    between atoms: C5_5  and  C7_7 
REMARK    7  A    between atoms: C6_6  and  C8_8 
REMARK    8  A    between atoms: C7_7  and  C9_9 
REMARK    9  A    between atoms: C8_8  and  C10_10 
USER                              x       y       z     vdW  Elec       q    Type
USER                           _______ _______ _______ _____ _____    ______ ____
ROOT
ATOM      1  C1  MOL C   1      28.193  43.528  31.626 -0.48 -0.00    +0.000 C 
ENDROOT
BRANCH   1   2
ATOM      2  C2  MOL C   1      27.436  42.735  30.551 -0.46 -0.00    +0.000 C 
BRANCH   2   3
ATOM      3  C4  MOL C   1      27.747  41.223  30.801 -0.32 -0.00    +0.000 C 
BRANCH   3   4
ATOM      4  C6  MOL C   1      28.344  40.475  29.496 -0.35 -0.00    +0.000 C 
BRANCH   4   5
ATOM      5  C8  MOL C   1      29.843  40.534  29.307 -0.36 +0.00    -0.000 C 
BRANCH   5   6
ATOM      6  C10 MOL C   1      30.287  39.215  28.683 -0.47 +0.00    -0.005 C 
ATOM      7  C12 MOL C   1      30.741  39.251  27.254 -0.54 -0.00    +0.005 C 
ENDBRANCH   5   6
ENDBRANCH   4   5
ENDBRANCH   3   4
ENDBRANCH   2   3
ENDBRANCH   1   2
BRANCH   1   8
ATOM      8  C3  MOL C   1      29.493  42.676  31.917 -0.38 -0.00    +0.000 C 
BRANCH   8   9
ATOM      9  C5  MOL C   1      30.763  43.369  31.128 -0.43 -0.00    +0.000 C 
BRANCH   9  10
ATOM     10  C7  MOL C   1      32.030  42.461  30.910 -0.47 +0.00    -0.000 C 
BRANCH  10  11
ATOM     11  C9  MOL C   1      32.706  42.585  29.501 -0.63 +0.00    -0.005 C 
ATOM     12  C11 MOL C   1      33.243  44.054  29.377 -0.66 -0.00    +0.005 C 
ENDBRANCH  10  11
ENDBRANCH   9  10
ENDBRANCH   8   9
ENDBRANCH   1   8
TORSDOF 9
TER
ENDMDL
MODEL        4
USER    Run = 4
USER    DPF = lac2.dpf
USER  
USER    Estimated Free Energy of Binding    =   -3.43 kcal/mol  [=(1)+(2)+(3)-(4)]
USER    Estimated Inhibition Constant, Ki   =    3.07 mM (millimolar)  [Temperature = 298.15 K]
USER    
USER    (1) Final Intermolecular Energy     =   -5.52 kcal/mol
USER        vdW + Hbond + desolv Energy     =   -5.52 kcal/mol
USER        Electrostatic Energy            =   -0.00 kcal/mol
USER    (2) Final Total Internal Energy     =   -0.88 kcal/mol
USER    (3) Torsional Free Energy           =   +2.68 kcal/mol
USER    (4) Unbound System's Energy         =   -0.29 kcal/mol
USER    
USER    
USER    NEWDPF move PE_ligand.pdbqt
USER    NEWDPF about 3.037000 5.209000 3.149000
USER    NEWDPF tran0 29.443167 41.378220 29.564434
USER    NEWDPF quaternion0 0.647982 -0.267141 -0.642127 0.310527
USER    NEWDPF axisangle0 0.681682 -0.281034 -0.675522 143.818005
USER    NEWDPF quat0 0.681682 -0.281034 -0.675522 143.818005
USER    NEWDPF dihe0 146.42 35.82 99.53 90.14 159.97 179.09 62.97 79.45 81.96 
USER  keepresnum = 1 
USER  
REMARK  9 active torsions:
REMARK  status: ('A' for Active; 'I' for Inactive)
REMARK    1  A    between atoms: C1_1  and  C2_2 
REMARK    2  A    between atoms: C1_1  and  C3_3 
REMARK    3  A    between atoms: C2_2  and  C4_4 
REMARK    4  A    between atoms: C3_3  and  C5_5 
REMARK    5  A    between atoms: C4_4  and  C6_6 
REMARK    6  A    between atoms: C5_5  and  C7_7 
REMARK    7  A    between atoms: C6_6  and  C8_8 
REMARK    8  A    between atoms: C7_7  and  C9_9 
REMARK    9  A    between atoms: C8_8  and  C10_10 
USER                              x       y       z     vdW  Elec       q    Type
USER                           _______ _______ _______ _____ _____    ______ ____
ROOT
ATOM      1  C1  MOL C   1      28.281  41.356  29.634 -0.38 -0.00    +0.000 C 
ENDROOT
BRANCH   1   2
ATOM      2  C2  MOL C   1      29.119  41.629  28.378 -0.45 -0.00    +0.000 C 
BRANCH   2   3
ATOM      3  C4  MOL C   1      29.127  40.307  27.542 -0.44 -0.00    +0.000 C 
BRANCH   3   4
ATOM      4  C6  MOL C   1      30.586  39.608  27.475 -0.50 -0.00    +0.000 C 
BRANCH   4   5
ATOM      5  C8  MOL C   1      31.096  38.980  28.752 -0.50 +0.00    -0.000 C 
BRANCH   5   6
ATOM      6  C10 MOL C   1      31.900  40.035  29.503 -0.48 +0.00    -0.005 C 
ATOM      7  C12 MOL C   1      32.905  39.547  30.504 -0.45 -0.01    +0.005 C 
ENDBRANCH   5   6
ENDBRANCH   4   5
ENDBRANCH   3   4
ENDBRANCH   2   3
ENDBRANCH   1   2
BRANCH   1   8
ATOM      8  C3  MOL C   1      28.627  42.544  30.618 -0.32 -0.00    +0.000 C 
BRANCH   8   9
ATOM      9  C5  MOL C   1      30.121  42.276  31.260 -0.34 -0.00    +0.000 C 
BRANCH   9  10
ATOM     10  C7  MOL C   1      31.214  43.371  30.969 -0.42 +0.00    -0.000 C 
BRANCH  10  11
ATOM     11  C9  MOL C   1      31.809  43.352  29.518 -0.54 +0.00    -0.005 C 
ATOM     12  C11 MOL C   1      33.371  43.385  29.662 -0.69 -0.00    +0.005 C 
ENDBRANCH  10  11
ENDBRANCH   9  10
ENDBRANCH   8   9
ENDBRANCH   1   8
TORSDOF 9
TER
ENDMDL
MODEL        5
USER    Run = 5
USER    DPF = lac2.dpf
USER  
USER    Estimated Free Energy of Binding    =   -3.45 kcal/mol  [=(1)+(2)+(3)-(4)]
USER    Estimated Inhibition Constant, Ki   =    2.94 mM (millimolar)  [Temperature = 298.15 K]
USER    
USER    (1) Final Intermolecular Energy     =   -5.75 kcal/mol
USER        vdW + Hbond + desolv Energy     =   -5.75 kcal/mol
USER        Electrostatic Energy            =   +0.00 kcal/mol
USER    (2) Final Total Internal Energy     =   -0.68 kcal/mol
USER    (3) Torsional Free Energy           =   +2.68 kcal/mol
USER    (4) Unbound System's Energy         =   -0.29 kcal/mol
USER    
USER    
USER    NEWDPF move PE_ligand.pdbqt
USER    NEWDPF about 3.037000 5.209000 3.149000
USER    NEWDPF tran0 32.153837 41.731001 30.258693
USER    NEWDPF quaternion0 -0.496452 0.358656 0.187022 -0.768065
USER    NEWDPF axisangle0 -0.775257 0.560074 0.292052 -79.639087
USER    NEWDPF quat0 -0.775257 0.560074 0.292052 -79.639087
USER    NEWDPF dihe0 -106.95 -62.52 76.77 121.93 -165.16 -130.42 -166.70 44.52 13.73 
USER  keepresnum = 1 
USER  
REMARK  9 active torsions:
REMARK  status: ('A' for Active; 'I' for Inactive)
REMARK    1  A    between atoms: C1_1  and  C2_2 
REMARK    2  A    between atoms: C1_1  and  C3_3 
REMARK    3  A    between atoms: C2_2  and  C4_4 
REMARK    4  A    between atoms: C3_3  and  C5_5 
REMARK    5  A    between atoms: C4_4  and  C6_6 
REMARK    6  A    between atoms: C5_5  and  C7_7 
REMARK    7  A    between atoms: C6_6  and  C8_8 
REMARK    8  A    between atoms: C7_7  and  C9_9 
REMARK    9  A    between atoms: C8_8  and  C10_10 
USER                              x       y       z     vdW  Elec       q    Type
USER                           _______ _______ _______ _____ _____    ______ ____
ROOT
ATOM      1  C1  MOL C   1      31.793  42.803  29.977 -0.52 -0.00    +0.000 C 
ENDROOT
BRANCH   1   2
ATOM      2  C2  MOL C   1      32.999  42.055  29.389 -0.63 -0.00    +0.000 C 
BRANCH   2   3
ATOM      3  C4  MOL C   1      32.623  40.537  29.366 -0.51 -0.00    +0.000 C 
BRANCH   3   4
ATOM      4  C6  MOL C   1      31.031  40.276  29.497 -0.40 -0.00    +0.000 C 
BRANCH   4   5
ATOM      5  C8  MOL C   1      30.305  39.860  28.238 -0.48 +0.00    -0.000 C 
BRANCH   5   6
ATOM      6  C10 MOL C   1      29.341  40.981  27.863 -0.45 +0.00    -0.005 C 
ATOM      7  C12 MOL C   1      28.415  41.474  28.934 -0.42 -0.00    +0.005 C 
ENDBRANCH   5   6
ENDBRANCH   4   5
ENDBRANCH   3   4
ENDBRANCH   2   3
ENDBRANCH   1   2
BRANCH   1   8
ATOM      8  C3  MOL C   1      32.140  42.984  31.509 -0.40 -0.00    +0.000 C 
BRANCH   8   9
ATOM      9  C5  MOL C   1      31.133  42.024  32.393 -0.38 -0.00    +0.000 C 
BRANCH   9  10
ATOM     10  C7  MOL C   1      31.474  41.875  33.922 -0.39 +0.00    -0.000 C 
BRANCH  10  11
ATOM     11  C9  MOL C   1      32.991  41.654  34.251 -0.53 +0.00    -0.005 C 
ATOM     12  C11 MOL C   1      33.369  42.671  35.383 -0.63 -0.00    +0.005 C 
ENDBRANCH  10  11
ENDBRANCH   9  10
ENDBRANCH   8   9
ENDBRANCH   1   8
TORSDOF 9
TER
ENDMDL
MODEL        6
USER    Run = 6
USER    DPF = lac2.dpf
USER  
USER    Estimated Free Energy of Binding    =   -3.76 kcal/mol  [=(1)+(2)+(3)-(4)]
USER    Estimated Inhibition Constant, Ki   =    1.75 mM (millimolar)  [Temperature = 298.15 K]
USER    
USER    (1) Final Intermolecular Energy     =   -6.23 kcal/mol
USER        vdW + Hbond + desolv Energy     =   -6.23 kcal/mol
USER        Electrostatic Energy            =   +0.00 kcal/mol
USER    (2) Final Total Internal Energy     =   -0.50 kcal/mol
USER    (3) Torsional Free Energy           =   +2.68 kcal/mol
USER    (4) Unbound System's Energy         =   -0.29 kcal/mol
USER    
USER    
USER    NEWDPF move PE_ligand.pdbqt
USER    NEWDPF about 3.037000 5.209000 3.149000
USER    NEWDPF tran0 30.350937 39.853442 28.434460
USER    NEWDPF quaternion0 0.061334 -0.016442 -0.997253 -0.038140
USER    NEWDPF axisangle0 0.061378 -0.016454 -0.997979 -175.628374
USER    NEWDPF quat0 0.061378 -0.016454 -0.997979 -175.628374
USER    NEWDPF dihe0 101.46 27.45 -73.12 133.15 -159.17 -137.54 -109.49 36.19 -13.93 
USER  keepresnum = 1 
USER  
REMARK  9 active torsions:
REMARK  status: ('A' for Active; 'I' for Inactive)
REMARK    1  A    between atoms: C1_1  and  C2_2 
REMARK    2  A    between atoms: C1_1  and  C3_3 
REMARK    3  A    between atoms: C2_2  and  C4_4 
REMARK    4  A    between atoms: C3_3  and  C5_5 
REMARK    5  A    between atoms: C4_4  and  C6_6 
REMARK    6  A    between atoms: C5_5  and  C7_7 
REMARK    7  A    between atoms: C6_6  and  C8_8 
REMARK    8  A    between atoms: C7_7  and  C9_9 
REMARK    9  A    between atoms: C8_8  and  C10_10 
USER                              x       y       z     vdW  Elec       q    Type
USER                           _______ _______ _______ _____ _____    ______ ____
ROOT
ATOM      1  C1  MOL C   1      30.430  39.009  29.233 -0.45 -0.00    +0.000 C 
ENDROOT
BRANCH   1   2
ATOM      2  C2  MOL C   1      29.140  39.627  28.675 -0.34 -0.00    +0.000 C 
BRANCH   2   3
ATOM      3  C4  MOL C   1      29.565  40.609  27.534 -0.43 -0.00    +0.000 C 
BRANCH   3   4
ATOM      4  C6  MOL C   1      30.006  39.849  26.175 -0.44 -0.00    +0.000 C 
BRANCH   4   5
ATOM      5  C8  MOL C   1      29.091  40.005  24.982 -0.46 +0.00    -0.000 C 
BRANCH   5   6
ATOM      6  C10 MOL C   1      29.641  41.133  24.117 -0.74 +0.00    -0.005 C 
ATOM      7  C12 MOL C   1      29.252  41.139  22.669 -0.79 -0.00    +0.005 C 
ENDBRANCH   5   6
ENDBRANCH   4   5
ENDBRANCH   3   4
ENDBRANCH   2   3
ENDBRANCH   1   2
BRANCH   1   8
ATOM      8  C3  MOL C   1      31.164  40.201  29.968 -0.38 -0.00    +0.000 C 
BRANCH   8   9
ATOM      9  C5  MOL C   1      32.621  40.449  29.242 -0.48 -0.00    +0.000 C 
BRANCH   9  10
ATOM     10  C7  MOL C   1      33.323  41.828  29.533 -0.57 +0.00    -0.000 C 
BRANCH  10  11
ATOM     11  C9  MOL C   1      32.351  43.038  29.754 -0.61 +0.00    -0.005 C 
ATOM     12  C11 MOL C   1      32.976  44.271  29.013 -0.55 -0.00    +0.005 C 
ENDBRANCH  10  11
ENDBRANCH   9  10
ENDBRANCH   8   9
ENDBRANCH   1   8
TORSDOF 9
TER
ENDMDL
MODEL        7
USER    Run = 7
USER    DPF = lac2.dpf
USER  
USER    Estimated Free Energy of Binding    =   -3.45 kcal/mol  [=(1)+(2)+(3)-(4)]
USER    Estimated Inhibition Constant, Ki   =    2.95 mM (millimolar)  [Temperature = 298.15 K]
USER    
USER    (1) Final Intermolecular Energy     =   -5.50 kcal/mol
USER        vdW + Hbond + desolv Energy     =   -5.50 kcal/mol
USER        Electrostatic Energy            =   +0.00 kcal/mol
USER    (2) Final Total Internal Energy     =   -0.93 kcal/mol
USER    (3) Torsional Free Energy           =   +2.68 kcal/mol
USER    (4) Unbound System's Energy         =   -0.29 kcal/mol
USER    
USER    
USER    NEWDPF move PE_ligand.pdbqt
USER    NEWDPF about 3.037000 5.209000 3.149000
USER    NEWDPF tran0 31.782254 41.603260 30.244291
USER    NEWDPF quaternion0 0.487057 -0.385517 0.098287 0.777491
USER    NEWDPF axisangle0 0.774465 -0.613008 0.156286 77.937230
USER    NEWDPF quat0 0.774465 -0.613008 0.156286 77.937230
USER    NEWDPF dihe0 85.71 147.01 178.17 -43.68 -1.52 -17.43 -73.63 43.11 3.96 
USER  keepresnum = 1 
USER  
REMARK  9 active torsions:
REMARK  status: ('A' for Active; 'I' for Inactive)
REMARK    1  A    between atoms: C1_1  and  C2_2 
REMARK    2  A    between atoms: C1_1  and  C3_3 
REMARK    3  A    between atoms: C2_2  and  C4_4 
REMARK    4  A    between atoms: C3_3  and  C5_5 
REMARK    5  A    between atoms: C4_4  and  C6_6 
REMARK    6  A    between atoms: C5_5  and  C7_7 
REMARK    7  A    between atoms: C6_6  and  C8_8 
REMARK    8  A    between atoms: C7_7  and  C9_9 
REMARK    9  A    between atoms: C8_8  and  C10_10 
USER                              x       y       z     vdW  Elec       q    Type
USER                           _______ _______ _______ _____ _____    ______ ____
ROOT
ATOM      1  C1  MOL C   1      32.040  42.622  29.742 -0.55 -0.00    +0.000 C 
ENDROOT
BRANCH   1   2
ATOM      2  C2  MOL C   1      32.827  41.310  29.613 -0.55 -0.00    +0.000 C 
BRANCH   2   3
ATOM      3  C4  MOL C   1      31.826  40.149  29.926 -0.44 -0.00    +0.000 C 
BRANCH   3   4
ATOM      4  C6  MOL C   1      31.470  39.252  28.627 -0.46 -0.00    +0.000 C 
BRANCH   4   5
ATOM      5  C8  MOL C   1      30.271  39.682  27.813 -0.50 +0.00    -0.000 C 
BRANCH   5   6
ATOM      6  C10 MOL C   1      29.498  40.711  28.629 -0.42 +0.00    -0.005 C 
ATOM      7  C12 MOL C   1      28.904  41.870  27.886 -0.44 -0.00    +0.005 C 
ENDBRANCH   5   6
ENDBRANCH   4   5
ENDBRANCH   3   4
ENDBRANCH   2   3
ENDBRANCH   1   2
BRANCH   1   8
ATOM      8  C3  MOL C   1      32.133  43.000  31.274 -0.44 -0.00    +0.000 C 
BRANCH   8   9
ATOM      9  C5  MOL C   1      30.635  42.851  31.944 -0.41 -0.00    +0.000 C 
BRANCH   9  10
ATOM     10  C7  MOL C   1      29.614  44.010  31.640 -0.46 +0.00    -0.000 C 
BRANCH  10  11
ATOM     11  C9  MOL C   1      28.105  43.585  31.627 -0.48 +0.00    -0.005 C 
ATOM     12  C11 MOL C   1      28.068  42.029  31.429 -0.35 -0.00    +0.005 C 
ENDBRANCH  10  11
ENDBRANCH   9  10
ENDBRANCH   8   9
ENDBRANCH   1   8
TORSDOF 9
TER
ENDMDL
MODEL        8
USER    Run = 8
USER    DPF = lac2.dpf
USER  
USER    Estimated Free Energy of Binding    =   -3.56 kcal/mol  [=(1)+(2)+(3)-(4)]
USER    Estimated Inhibition Constant, Ki   =    2.46 mM (millimolar)  [Temperature = 298.15 K]
USER    
USER    (1) Final Intermolecular Energy     =   -5.66 kcal/mol
USER        vdW + Hbond + desolv Energy     =   -5.66 kcal/mol
USER        Electrostatic Energy            =   +0.00 kcal/mol
USER    (2) Final Total Internal Energy     =   -0.87 kcal/mol
USER    (3) Torsional Free Energy           =   +2.68 kcal/mol
USER    (4) Unbound System's Energy         =   -0.29 kcal/mol
USER    
USER    
USER    NEWDPF move PE_ligand.pdbqt
USER    NEWDPF about 3.037000 5.209000 3.149000
USER    NEWDPF tran0 30.508156 40.171133 29.511990
USER    NEWDPF quaternion0 0.147782 -0.753371 0.553916 0.322132
USER    NEWDPF axisangle0 0.156103 -0.795791 0.585105 142.416125
USER    NEWDPF quat0 0.156103 -0.795791 0.585105 142.416125
USER    NEWDPF dihe0 5.92 111.06 -32.17 59.66 -51.97 126.71 119.02 15.52 51.28 
USER  keepresnum = 1 
USER  
REMARK  9 active torsions:
REMARK  status: ('A' for Active; 'I' for Inactive)
REMARK    1  A    between atoms: C1_1  and  C2_2 
REMARK    2  A    between atoms: C1_1  and  C3_3 
REMARK    3  A    between atoms: C2_2  and  C4_4 
REMARK    4  A    between atoms: C3_3  and  C5_5 
REMARK    5  A    between atoms: C4_4  and  C6_6 
REMARK    6  A    between atoms: C5_5  and  C7_7 
REMARK    7  A    between atoms: C6_6  and  C8_8 
REMARK    8  A    between atoms: C7_7  and  C9_9 
REMARK    9  A    between atoms: C8_8  and  C10_10 
USER                              x       y       z     vdW  Elec       q    Type
USER                           _______ _______ _______ _____ _____    ______ ____
ROOT
ATOM      1  C1  MOL C   1      31.200  39.974  28.596 -0.48 -0.00    +0.000 C 
ENDROOT
BRANCH   1   2
ATOM      2  C2  MOL C   1      29.887  39.250  28.927 -0.41 -0.00    +0.000 C 
BRANCH   2   3
ATOM      3  C4  MOL C   1      28.731  40.275  28.680 -0.39 -0.00    +0.000 C 
BRANCH   3   4
ATOM      4  C6  MOL C   1      28.902  41.641  29.531 -0.37 -0.00    +0.000 C 
BRANCH   4   5
ATOM      5  C8  MOL C   1      27.641  42.245  30.106 -0.43 +0.00    -0.000 C 
BRANCH   5   6
ATOM      6  C10 MOL C   1      27.945  42.691  31.532 -0.43 +0.00    -0.005 C 
ATOM      7  C12 MOL C   1      29.003  43.739  31.711 -0.45 -0.00    +0.005 C 
ENDBRANCH   5   6
ENDBRANCH   4   5
ENDBRANCH   3   4
ENDBRANCH   2   3
ENDBRANCH   1   2
BRANCH   1   8
ATOM      8  C3  MOL C   1      32.168  39.624  29.796 -0.46 -0.00    +0.000 C 
BRANCH   8   9
ATOM      9  C5  MOL C   1      33.022  40.976  30.193 -0.52 -0.00    +0.000 C 
BRANCH   9  10
ATOM     10  C7  MOL C   1      32.199  42.166  30.814 -0.46 +0.00    -0.000 C 
BRANCH  10  11
ATOM     11  C9  MOL C   1      31.962  43.385  29.856 -0.56 +0.00    -0.005 C 
ATOM     12  C11 MOL C   1      33.372  43.860  29.359 -0.69 -0.00    +0.005 C 
ENDBRANCH  10  11
ENDBRANCH   9  10
ENDBRANCH   8   9
ENDBRANCH   1   8
TORSDOF 9
TER
ENDMDL
MODEL        9
USER    Run = 9
USER    DPF = lac2.dpf
USER  
USER    Estimated Free Energy of Binding    =   -3.61 kcal/mol  [=(1)+(2)+(3)-(4)]
USER    Estimated Inhibition Constant, Ki   =    2.27 mM (millimolar)  [Temperature = 298.15 K]
USER    
USER    (1) Final Intermolecular Energy     =   -5.65 kcal/mol
USER        vdW + Hbond + desolv Energy     =   -5.65 kcal/mol
USER        Electrostatic Energy            =   +0.00 kcal/mol
USER    (2) Final Total Internal Energy     =   -0.93 kcal/mol
USER    (3) Torsional Free Energy           =   +2.68 kcal/mol
USER    (4) Unbound System's Energy         =   -0.29 kcal/mol
USER    
USER    
USER    NEWDPF move PE_ligand.pdbqt
USER    NEWDPF about 3.037000 5.209000 3.149000
USER    NEWDPF tran0 29.702028 40.802130 28.980081
USER    NEWDPF quaternion0 -0.039088 0.721319 -0.691278 -0.017466
USER    NEWDPF axisangle0 -0.039094 0.721429 -0.691384 -177.998461
USER    NEWDPF quat0 -0.039094 0.721429 -0.691384 -177.998461
USER    NEWDPF dihe0 31.45 37.51 -131.27 69.04 167.93 151.04 12.50 23.52 25.00 
USER  keepresnum = 1 
USER  
REMARK  9 active torsions:
REMARK  status: ('A' for Active; 'I' for Inactive)
REMARK    1  A    between atoms: C1_1  and  C2_2 
REMARK    2  A    between atoms: C1_1  and  C3_3 
REMARK    3  A    between atoms: C2_2  and  C4_4 
REMARK    4  A    between atoms: C3_3  and  C5_5 
REMARK    5  A    between atoms: C4_4  and  C6_6 
REMARK    6  A    between atoms: C5_5  and  C7_7 
REMARK    7  A    between atoms: C6_6  and  C8_8 
REMARK    8  A    between atoms: C7_7  and  C9_9 
REMARK    9  A    between atoms: C8_8  and  C10_10 
USER                              x       y       z     vdW  Elec       q    Type
USER                           _______ _______ _______ _____ _____    ______ ____
ROOT
ATOM      1  C1  MOL C   1      29.842  40.091  28.068 -0.46 -0.00    +0.000 C 
ENDROOT
BRANCH   1   2
ATOM      2  C2  MOL C   1      28.545  40.332  28.853 -0.38 -0.00    +0.000 C 
BRANCH   2   3
ATOM      3  C4  MOL C   1      28.427  41.876  29.070 -0.41 -0.00    +0.000 C 
BRANCH   3   4
ATOM      4  C6  MOL C   1      27.376  42.274  30.235 -0.45 -0.00    +0.000 C 
BRANCH   4   5
ATOM      5  C8  MOL C   1      27.857  42.129  31.661 -0.37 +0.00    -0.000 C 
BRANCH   5   6
ATOM      6  C10 MOL C   1      29.321  42.554  31.705 -0.36 +0.00    -0.005 C 
ATOM      7  C12 MOL C   1      29.605  44.012  31.911 -0.50 -0.00    +0.005 C 
ENDBRANCH   5   6
ENDBRANCH   4   5
ENDBRANCH   3   4
ENDBRANCH   2   3
ENDBRANCH   1   2
BRANCH   1   8
ATOM      8  C3  MOL C   1      30.836  39.449  29.117 -0.47 -0.00    +0.000 C 
BRANCH   8   9
ATOM      9  C5  MOL C   1      32.275  40.247  29.034 -0.48 -0.00    +0.000 C 
BRANCH   9  10
ATOM     10  C7  MOL C   1      32.453  41.474  30.004 -0.51 +0.00    -0.000 C 
BRANCH  10  11
ATOM     11  C9  MOL C   1      32.145  42.876  29.372 -0.58 +0.00    -0.005 C 
ATOM     12  C11 MOL C   1      33.374  43.800  29.684 -0.68 -0.00    +0.005 C 
ENDBRANCH  10  11
ENDBRANCH   9  10
ENDBRANCH   8   9
ENDBRANCH   1   8
TORSDOF 9
TER
ENDMDL
MODEL       10
USER    Run = 10
USER    DPF = lac2.dpf
USER  
USER    Estimated Free Energy of Binding    =   -3.64 kcal/mol  [=(1)+(2)+(3)-(4)]
USER    Estimated Inhibition Constant, Ki   =    2.15 mM (millimolar)  [Temperature = 298.15 K]
USER    
USER    (1) Final Intermolecular Energy     =   -6.04 kcal/mol
USER        vdW + Hbond + desolv Energy     =   -6.04 kcal/mol
USER        Electrostatic Energy            =   +0.00 kcal/mol
USER    (2) Final Total Internal Energy     =   -0.57 kcal/mol
USER    (3) Torsional Free Energy           =   +2.68 kcal/mol
USER    (4) Unbound System's Energy         =   -0.29 kcal/mol
USER    
USER    
USER    NEWDPF move PE_ligand.pdbqt
USER    NEWDPF about 3.037000 5.209000 3.149000
USER    NEWDPF tran0 29.922155 38.762641 27.791350
USER    NEWDPF quaternion0 -0.730544 -0.229488 -0.385222 -0.515019
USER    NEWDPF axisangle0 -0.852266 -0.267725 -0.449407 -118.002529
USER    NEWDPF quat0 -0.852266 -0.267725 -0.449407 -118.002529
USER    NEWDPF dihe0 128.48 -180.00 154.21 -103.17 -59.33 -40.02 -86.80 1.00 -163.43 
USER  keepresnum = 1 
USER  
REMARK  9 active torsions:
REMARK  status: ('A' for Active; 'I' for Inactive)
REMARK    1  A    between atoms: C1_1  and  C2_2 
REMARK    2  A    between atoms: C1_1  and  C3_3 
REMARK    3  A    between atoms: C2_2  and  C4_4 
REMARK    4  A    between atoms: C3_3  and  C5_5 
REMARK    5  A    between atoms: C4_4  and  C6_6 
REMARK    6  A    between atoms: C5_5  and  C7_7 
REMARK    7  A    between atoms: C6_6  and  C8_8 
REMARK    8  A    between atoms: C7_7  and  C9_9 
REMARK    9  A    between atoms: C8_8  and  C10_10 
USER                              x       y       z     vdW  Elec       q    Type
USER                           _______ _______ _______ _____ _____    ______ ____
ROOT
ATOM      1  C1  MOL C   1      30.747  39.155  27.068 -0.52 -0.00    +0.000 C 
ENDROOT
BRANCH   1   2
ATOM      2  C2  MOL C   1      30.863  38.992  28.591 -0.52 -0.00    +0.000 C 
BRANCH   2   3
ATOM      3  C4  MOL C   1      31.739  40.180  29.108 -0.49 -0.00    +0.000 C 
BRANCH   3   4
ATOM      4  C6  MOL C   1      30.860  41.409  29.688 -0.37 -0.00    +0.000 C 
BRANCH   4   5
ATOM      5  C8  MOL C   1      31.446  42.794  29.532 -0.48 +0.00    -0.000 C 
BRANCH   5   6
ATOM      6  C10 MOL C   1      32.955  42.687  29.723 -0.65 +0.00    -0.005 C 
ATOM      7  C12 MOL C   1      33.741  43.964  29.704 -0.58 -0.00    +0.005 C 
ENDBRANCH   5   6
ENDBRANCH   4   5
ENDBRANCH   3   4
ENDBRANCH   2   3
ENDBRANCH   1   2
BRANCH   1   8
ATOM      8  C3  MOL C   1      29.614  40.238  26.863 -0.46 -0.00    +0.000 C 
BRANCH   8   9
ATOM      9  C5  MOL C   1      28.922  40.002  25.387 -0.19 -0.00    +0.000 C 
BRANCH   9  10
ATOM     10  C7  MOL C   1      29.411  40.945  24.225 -0.70 +0.00    -0.000 C 
BRANCH  10  11
ATOM     11  C9  MOL C   1      30.618  40.399  23.386 -0.62 +0.00    -0.005 C 
ATOM     12  C11 MOL C   1      30.776  38.879  23.742 -0.47 -0.00    +0.005 C 
ENDBRANCH  10  11
ENDBRANCH   9  10
ENDBRANCH   8   9
ENDBRANCH   1   8
TORSDOF 9
TER
ENDMDL
MODEL       11
USER    Run = 11
USER    DPF = lac2.dpf
USER  
USER    Estimated Free Energy of Binding    =   -3.37 kcal/mol  [=(1)+(2)+(3)-(4)]
USER    Estimated Inhibition Constant, Ki   =    3.38 mM (millimolar)  [Temperature = 298.15 K]
USER    
USER    (1) Final Intermolecular Energy     =   -5.46 kcal/mol
USER        vdW + Hbond + desolv Energy     =   -5.46 kcal/mol
USER        Electrostatic Energy            =   +0.00 kcal/mol
USER    (2) Final Total Internal Energy     =   -0.88 kcal/mol
USER    (3) Torsional Free Energy           =   +2.68 kcal/mol
USER    (4) Unbound System's Energy         =   -0.29 kcal/mol
USER    
USER    
USER    NEWDPF move PE_ligand.pdbqt
USER    NEWDPF about 3.037000 5.209000 3.149000
USER    NEWDPF tran0 29.032848 42.537626 30.914712
USER    NEWDPF quaternion0 -0.172389 0.614040 -0.173065 0.750523
USER    NEWDPF axisangle0 -0.260863 0.929175 -0.261885 82.728518
USER    NEWDPF quat0 -0.260863 0.929175 -0.261885 82.728518
USER    NEWDPF dihe0 86.47 -27.26 -153.13 -156.17 -142.20 170.87 52.27 31.39 22.42 
USER  keepresnum = 1 
USER  
REMARK  9 active torsions:
REMARK  status: ('A' for Active; 'I' for Inactive)
REMARK    1  A    between atoms: C1_1  and  C2_2 
REMARK    2  A    between atoms: C1_1  and  C3_3 
REMARK    3  A    between atoms: C2_2  and  C4_4 
REMARK    4  A    between atoms: C3_3  and  C5_5 
REMARK    5  A    between atoms: C4_4  and  C6_6 
REMARK    6  A    between atoms: C5_5  and  C7_7 
REMARK    7  A    between atoms: C6_6  and  C8_8 
REMARK    8  A    between atoms: C7_7  and  C9_9 
REMARK    9  A    between atoms: C8_8  and  C10_10 
USER                              x       y       z     vdW  Elec       q    Type
USER                           _______ _______ _______ _____ _____    ______ ____
ROOT
ATOM      1  C1  MOL C   1      27.945  42.947  30.990 -0.43 -0.00    +0.000 C 
ENDROOT
BRANCH   1   2
ATOM      2  C2  MOL C   1      28.856  42.542  32.158 -0.29 -0.00    +0.000 C 
BRANCH   2   3
ATOM      3  C4  MOL C   1      30.284  43.088  31.827 -0.43 -0.00    +0.000 C 
BRANCH   3   4
ATOM      4  C6  MOL C   1      31.416  41.930  31.809 -0.37 -0.00    +0.000 C 
BRANCH   4   5
ATOM      5  C8  MOL C   1      32.295  41.860  30.581 -0.47 +0.00    -0.000 C 
BRANCH   5   6
ATOM      6  C10 MOL C   1      32.144  43.175  29.824 -0.58 +0.00    -0.005 C 
ATOM      7  C12 MOL C   1      33.375  43.742  29.182 -0.68 -0.00    +0.005 C 
ENDBRANCH   5   6
ENDBRANCH   4   5
ENDBRANCH   3   4
ENDBRANCH   2   3
ENDBRANCH   1   2
BRANCH   1   8
ATOM      8  C3  MOL C   1      27.718  41.613  30.173 -0.39 -0.00    +0.000 C 
BRANCH   8   9
ATOM      9  C5  MOL C   1      28.192  41.863  28.615 -0.42 -0.00    +0.000 C 
BRANCH   9  10
ATOM     10  C7  MOL C   1      29.482  41.093  28.144 -0.44 +0.00    -0.000 C 
BRANCH  10  11
ATOM     11  C9  MOL C   1      29.626  39.632  28.694 -0.41 +0.00    -0.005 C 
ATOM     12  C11 MOL C   1      30.745  38.930  27.849 -0.56 -0.00    +0.005 C 
ENDBRANCH  10  11
ENDBRANCH   9  10
ENDBRANCH   8   9
ENDBRANCH   1   8
TORSDOF 9
TER
ENDMDL
MODEL       12
USER    Run = 12
USER    DPF = lac2.dpf
USER  
USER    Estimated Free Energy of Binding    =   -3.56 kcal/mol  [=(1)+(2)+(3)-(4)]
USER    Estimated Inhibition Constant, Ki   =    2.44 mM (millimolar)  [Temperature = 298.15 K]
USER    
USER    (1) Final Intermolecular Energy     =   -6.00 kcal/mol
USER        vdW + Hbond + desolv Energy     =   -6.00 kcal/mol
USER        Electrostatic Energy            =   +0.00 kcal/mol
USER    (2) Final Total Internal Energy     =   -0.54 kcal/mol
USER    (3) Torsional Free Energy           =   +2.68 kcal/mol
USER    (4) Unbound System's Energy         =   -0.29 kcal/mol
USER    
USER    
USER    NEWDPF move PE_ligand.pdbqt
USER    NEWDPF about 3.037000 5.209000 3.149000
USER    NEWDPF tran0 31.510650 39.566729 29.471413
USER    NEWDPF quaternion0 -0.737014 -0.062105 0.671026 -0.051733
USER    NEWDPF axisangle0 -0.738003 -0.062188 0.671926 -174.069131
USER    NEWDPF quat0 -0.738003 -0.062188 0.671926 -174.069131
USER    NEWDPF dihe0 114.69 -50.86 -46.09 77.82 -79.08 154.78 47.13 65.24 -159.96 
USER  keepresnum = 1 
USER  
REMARK  9 active torsions:
REMARK  status: ('A' for Active; 'I' for Inactive)
REMARK    1  A    between atoms: C1_1  and  C2_2 
REMARK    2  A    between atoms: C1_1  and  C3_3 
REMARK    3  A    between atoms: C2_2  and  C4_4 
REMARK    4  A    between atoms: C3_3  and  C5_5 
REMARK    5  A    between atoms: C4_4  and  C6_6 
REMARK    6  A    between atoms: C5_5  and  C7_7 
REMARK    7  A    between atoms: C6_6  and  C8_8 
REMARK    8  A    between atoms: C7_7  and  C9_9 
REMARK    9  A    between atoms: C8_8  and  C10_10 
USER                              x       y       z     vdW  Elec       q    Type
USER                           _______ _______ _______ _____ _____    ______ ____
ROOT
ATOM      1  C1  MOL C   1      30.764  38.678  29.367 -0.48 -0.00    +0.000 C 
ENDROOT
BRANCH   1   2
ATOM      2  C2  MOL C   1      31.242  39.612  28.246 -0.50 -0.00    +0.000 C 
BRANCH   2   3
ATOM      3  C4  MOL C   1      30.002  39.902  27.338 -0.48 -0.00    +0.000 C 
BRANCH   3   4
ATOM      4  C6  MOL C   1      30.287  39.625  25.769 -0.38 -0.00    +0.000 C 
BRANCH   4   5
ATOM      5  C8  MOL C   1      29.248  40.127  24.792 -0.58 +0.00    -0.000 C 
BRANCH   5   6
ATOM      6  C10 MOL C   1      29.946  41.058  23.807 -0.74 +0.00    -0.005 C 
ATOM      7  C12 MOL C   1      29.160  41.503  22.610 -0.73 -0.00    +0.005 C 
ENDBRANCH   5   6
ENDBRANCH   4   5
ENDBRANCH   3   4
ENDBRANCH   2   3
ENDBRANCH   1   2
BRANCH   1   8
ATOM      8  C3  MOL C   1      29.988  39.619  30.373 -0.29 -0.00    +0.000 C 
BRANCH   8   9
ATOM      9  C5  MOL C   1      31.057  40.197  31.484 -0.26 -0.00    +0.000 C 
BRANCH   9  10
ATOM     10  C7  MOL C   1      31.681  41.611  31.186 -0.36 +0.00    -0.000 C 
BRANCH  10  11
ATOM     11  C9  MOL C   1      32.982  41.596  30.309 -0.52 +0.00    -0.005 C 
ATOM     12  C11 MOL C   1      32.913  42.844  29.362 -0.67 -0.00    +0.005 C 
ENDBRANCH  10  11
ENDBRANCH   9  10
ENDBRANCH   8   9
ENDBRANCH   1   8
TORSDOF 9
TER
ENDMDL
MODEL       13
USER    Run = 13
USER    DPF = lac2.dpf
USER  
USER    Estimated Free Energy of Binding    =   -3.90 kcal/mol  [=(1)+(2)+(3)-(4)]
USER    Estimated Inhibition Constant, Ki   =    1.38 mM (millimolar)  [Temperature = 298.15 K]
USER    
USER    (1) Final Intermolecular Energy     =   -6.42 kcal/mol
USER        vdW + Hbond + desolv Energy     =   -6.42 kcal/mol
USER        Electrostatic Energy            =   +0.00 kcal/mol
USER    (2) Final Total Internal Energy     =   -0.46 kcal/mol
USER    (3) Torsional Free Energy           =   +2.68 kcal/mol
USER    (4) Unbound System's Energy         =   -0.29 kcal/mol
USER    
USER    
USER    NEWDPF move PE_ligand.pdbqt
USER    NEWDPF about 3.037000 5.209000 3.149000
USER    NEWDPF tran0 31.882620 39.437070 28.401385
USER    NEWDPF quaternion0 0.289483 -0.697846 -0.043187 -0.653717
USER    NEWDPF axisangle0 0.382540 -0.922175 -0.057070 -98.355121
USER    NEWDPF quat0 0.382540 -0.922175 -0.057070 -98.355121
USER    NEWDPF dihe0 -117.60 -27.14 49.21 -82.90 180.00 177.92 139.84 -52.20 84.94 
USER  keepresnum = 1 
USER  
REMARK  9 active torsions:
REMARK  status: ('A' for Active; 'I' for Inactive)
REMARK    1  A    between atoms: C1_1  and  C2_2 
REMARK    2  A    between atoms: C1_1  and  C3_3 
REMARK    3  A    between atoms: C2_2  and  C4_4 
REMARK    4  A    between atoms: C3_3  and  C5_5 
REMARK    5  A    between atoms: C4_4  and  C6_6 
REMARK    6  A    between atoms: C5_5  and  C7_7 
REMARK    7  A    between atoms: C6_6  and  C8_8 
REMARK    8  A    between atoms: C7_7  and  C9_9 
REMARK    9  A    between atoms: C8_8  and  C10_10 
USER                              x       y       z     vdW  Elec       q    Type
USER                           _______ _______ _______ _____ _____    ______ ____
ROOT
ATOM      1  C1  MOL C   1      30.864  39.972  28.582 -0.48 -0.00    +0.000 C 
ENDROOT
BRANCH   1   2
ATOM      2  C2  MOL C   1      31.501  38.889  29.464 -0.42 -0.00    +0.000 C 
BRANCH   2   3
ATOM      3  C4  MOL C   1      32.072  39.612  30.728 -0.39 -0.00    +0.000 C 
BRANCH   3   4
ATOM      4  C6  MOL C   1      32.669  41.081  30.402 -0.49 -0.00    +0.000 C 
BRANCH   4   5
ATOM      5  C8  MOL C   1      31.709  42.244  30.515 -0.44 +0.00    -0.000 C 
BRANCH   5   6
ATOM      6  C10 MOL C   1      32.019  43.217  29.383 -0.57 +0.00    -0.005 C 
ATOM      7  C12 MOL C   1      33.382  43.842  29.370 -0.69 -0.00    +0.005 C 
ENDBRANCH   5   6
ENDBRANCH   4   5
ENDBRANCH   3   4
ENDBRANCH   2   3
ENDBRANCH   1   2
BRANCH   1   8
ATOM      8  C3  MOL C   1      30.598  39.260  27.196 -0.52 -0.00    +0.000 C 
BRANCH   8   9
ATOM      9  C5  MOL C   1      29.328  40.006  26.457 -0.42 -0.00    +0.000 C 
BRANCH   9  10
ATOM     10  C7  MOL C   1      29.628  40.688  25.070 -0.56 +0.00    -0.000 C 
BRANCH  10  11
ATOM     11  C9  MOL C   1      28.958  40.003  23.829 -0.66 +0.00    -0.005 C 
ATOM     12  C11 MOL C   1      29.076  41.007  22.630 -0.78 -0.00    +0.005 C 
ENDBRANCH  10  11
ENDBRANCH   9  10
ENDBRANCH   8   9
ENDBRANCH   1   8
TORSDOF 9
TER
ENDMDL
MODEL       14
USER    Run = 14
USER    DPF = lac2.dpf
USER  
USER    Estimated Free Energy of Binding    =   -3.45 kcal/mol  [=(1)+(2)+(3)-(4)]
USER    Estimated Inhibition Constant, Ki   =    2.97 mM (millimolar)  [Temperature = 298.15 K]
USER    
USER    (1) Final Intermolecular Energy     =   -5.72 kcal/mol
USER        vdW + Hbond + desolv Energy     =   -5.72 kcal/mol
USER        Electrostatic Energy            =   +0.00 kcal/mol
USER    (2) Final Total Internal Energy     =   -0.70 kcal/mol
USER    (3) Torsional Free Energy           =   +2.68 kcal/mol
USER    (4) Unbound System's Energy         =   -0.29 kcal/mol
USER    
USER    
USER    NEWDPF move PE_ligand.pdbqt
USER    NEWDPF about 3.037000 5.209000 3.149000
USER    NEWDPF tran0 32.218217 41.502378 30.816966
USER    NEWDPF quaternion0 0.641478 -0.344666 -0.300729 0.615852
USER    NEWDPF axisangle0 0.814201 -0.437470 -0.381703 103.972345
USER    NEWDPF quat0 0.814201 -0.437470 -0.381703 103.972345
USER    NEWDPF dihe0 -117.26 -160.66 136.24 -85.32 -132.34 166.55 180.00 57.23 33.17 
USER  keepresnum = 1 
USER  
REMARK  9 active torsions:
REMARK  status: ('A' for Active; 'I' for Inactive)
REMARK    1  A    between atoms: C1_1  and  C2_2 
REMARK    2  A    between atoms: C1_1  and  C3_3 
REMARK    3  A    between atoms: C2_2  and  C4_4 
REMARK    4  A    between atoms: C3_3  and  C5_5 
REMARK    5  A    between atoms: C4_4  and  C6_6 
REMARK    6  A    between atoms: C5_5  and  C7_7 
REMARK    7  A    between atoms: C6_6  and  C8_8 
REMARK    8  A    between atoms: C7_7  and  C9_9 
REMARK    9  A    between atoms: C8_8  and  C10_10 
USER                              x       y       z     vdW  Elec       q    Type
USER                           _______ _______ _______ _____ _____    ______ ____
ROOT
ATOM      1  C1  MOL C   1      31.472  42.264  30.348 -0.43 -0.00    +0.000 C 
ENDROOT
BRANCH   1   2
ATOM      2  C2  MOL C   1      32.805  41.798  29.747 -0.58 -0.00    +0.000 C 
BRANCH   2   3
ATOM      3  C4  MOL C   1      32.775  40.234  29.737 -0.46 -0.00    +0.000 C 
BRANCH   3   4
ATOM      4  C6  MOL C   1      31.358  39.624  30.227 -0.39 -0.00    +0.000 C 
BRANCH   4   5
ATOM      5  C8  MOL C   1      30.820  38.446  29.446 -0.47 +0.00    -0.000 C 
BRANCH   5   6
ATOM      6  C10 MOL C   1      30.759  38.849  27.977 -0.55 +0.00    -0.005 C 
ATOM      7  C12 MOL C   1      29.867  39.999  27.618 -0.47 -0.00    +0.005 C 
ENDBRANCH   5   6
ENDBRANCH   4   5
ENDBRANCH   3   4
ENDBRANCH   2   3
ENDBRANCH   1   2
BRANCH   1   8
ATOM      8  C3  MOL C   1      31.868  43.004  31.688 -0.44 -0.00    +0.000 C 
BRANCH   8   9
ATOM      9  C5  MOL C   1      31.678  41.954  32.944 -0.41 -0.00    +0.000 C 
BRANCH   9  10
ATOM     10  C7  MOL C   1      32.998  41.389  33.589 -0.43 +0.00    -0.000 C 
BRANCH  10  11
ATOM     11  C9  MOL C   1      33.325  41.929  35.025 -0.59 +0.00    -0.005 C 
ATOM     12  C11 MOL C   1      31.953  42.180  35.744 -0.50 -0.00    +0.005 C 
ENDBRANCH  10  11
ENDBRANCH   9  10
ENDBRANCH   8   9
ENDBRANCH   1   8
TORSDOF 9
TER
ENDMDL
MODEL       15
USER    Run = 15
USER    DPF = lac2.dpf
USER  
USER    Estimated Free Energy of Binding    =   -3.59 kcal/mol  [=(1)+(2)+(3)-(4)]
USER    Estimated Inhibition Constant, Ki   =    2.33 mM (millimolar)  [Temperature = 298.15 K]
USER    
USER    (1) Final Intermolecular Energy     =   -5.59 kcal/mol
USER        vdW + Hbond + desolv Energy     =   -5.59 kcal/mol
USER        Electrostatic Energy            =   +0.00 kcal/mol
USER    (2) Final Total Internal Energy     =   -0.97 kcal/mol
USER    (3) Torsional Free Energy           =   +2.68 kcal/mol
USER    (4) Unbound System's Energy         =   -0.29 kcal/mol
USER    
USER    
USER    NEWDPF move PE_ligand.pdbqt
USER    NEWDPF about 3.037000 5.209000 3.149000
USER    NEWDPF tran0 30.520731 39.397463 29.422510
USER    NEWDPF quaternion0 0.912942 -0.234297 0.329101 -0.057742
USER    NEWDPF axisangle0 0.914468 -0.234689 0.329651 -173.379628
USER    NEWDPF quat0 0.914468 -0.234689 0.329651 -173.379628
USER    NEWDPF dihe0 -22.06 -22.38 -109.58 67.13 -159.26 144.15 43.25 26.59 -32.22 
USER  keepresnum = 1 
USER  
REMARK  9 active torsions:
REMARK  status: ('A' for Active; 'I' for Inactive)
REMARK    1  A    between atoms: C1_1  and  C2_2 
REMARK    2  A    between atoms: C1_1  and  C3_3 
REMARK    3  A    between atoms: C2_2  and  C4_4 
REMARK    4  A    between atoms: C3_3  and  C5_5 
REMARK    5  A    between atoms: C4_4  and  C6_6 
REMARK    6  A    between atoms: C5_5  and  C7_7 
REMARK    7  A    between atoms: C6_6  and  C8_8 
REMARK    8  A    between atoms: C7_7  and  C9_9 
REMARK    9  A    between atoms: C8_8  and  C10_10 
USER                              x       y       z     vdW  Elec       q    Type
USER                           _______ _______ _______ _____ _____    ______ ____
ROOT
ATOM      1  C1  MOL C   1      30.474  38.468  28.722 -0.45 -0.00    +0.000 C 
ENDROOT
BRANCH   1   2
ATOM      2  C2  MOL C   1      31.472  38.707  29.864 -0.42 -0.00    +0.000 C 
BRANCH   2   3
ATOM      3  C4  MOL C   1      31.337  40.210  30.276 -0.36 -0.00    +0.000 C 
BRANCH   3   4
ATOM      4  C6  MOL C   1      32.764  40.963  30.404 -0.49 -0.00    +0.000 C 
BRANCH   4   5
ATOM      5  C8  MOL C   1      33.068  42.021  29.368 -0.62 +0.00    -0.000 C 
BRANCH   5   6
ATOM      6  C10 MOL C   1      31.988  43.093  29.465 -0.56 +0.00    -0.005 C 
ATOM      7  C12 MOL C   1      31.422  43.375  30.824 -0.43 -0.00    +0.005 C 
ENDBRANCH   5   6
ENDBRANCH   4   5
ENDBRANCH   3   4
ENDBRANCH   2   3
ENDBRANCH   1   2
BRANCH   1   8
ATOM      8  C3  MOL C   1      30.764  39.625  27.684 -0.50 -0.00    +0.000 C 
BRANCH   8   9
ATOM      9  C5  MOL C   1      29.342  40.378  27.327 -0.46 -0.00    +0.000 C 
BRANCH   9  10
ATOM     10  C7  MOL C   1      28.884  41.513  28.316 -0.46 +0.00    -0.000 C 
BRANCH  10  11
ATOM     11  C9  MOL C   1      27.824  41.079  29.386 -0.40 +0.00    -0.005 C 
ATOM     12  C11 MOL C   1      27.679  42.268  30.399 -0.43 -0.00    +0.005 C 
ENDBRANCH  10  11
ENDBRANCH   9  10
ENDBRANCH   8   9
ENDBRANCH   1   8
TORSDOF 9
TER
ENDMDL
MODEL       16
USER    Run = 16
USER    DPF = lac2.dpf
USER  
USER    Estimated Free Energy of Binding    =   -3.87 kcal/mol  [=(1)+(2)+(3)-(4)]
USER    Estimated Inhibition Constant, Ki   =    1.45 mM (millimolar)  [Temperature = 298.15 K]
USER    
USER    (1) Final Intermolecular Energy     =   -6.34 kcal/mol
USER        vdW + Hbond + desolv Energy     =   -6.34 kcal/mol
USER        Electrostatic Energy            =   +0.00 kcal/mol
USER    (2) Final Total Internal Energy     =   -0.51 kcal/mol
USER    (3) Torsional Free Energy           =   +2.68 kcal/mol
USER    (4) Unbound System's Energy         =   -0.29 kcal/mol
USER    
USER    
USER    NEWDPF move PE_ligand.pdbqt
USER    NEWDPF about 3.037000 5.209000 3.149000
USER    NEWDPF tran0 31.068677 40.374183 29.235722
USER    NEWDPF quaternion0 -0.853191 0.265522 0.424299 0.146745
USER    NEWDPF axisangle0 -0.862528 0.268428 0.428942 163.123353
USER    NEWDPF quat0 -0.862528 0.268428 0.428942 163.123353
USER    NEWDPF dihe0 -175.83 -11.57 28.82 65.50 -120.85 156.95 -107.50 55.48 -170.31 
USER  keepresnum = 1 
USER  
REMARK  9 active torsions:
REMARK  status: ('A' for Active; 'I' for Inactive)
REMARK    1  A    between atoms: C1_1  and  C2_2 
REMARK    2  A    between atoms: C1_1  and  C3_3 
REMARK    3  A    between atoms: C2_2  and  C4_4 
REMARK    4  A    between atoms: C3_3  and  C5_5 
REMARK    5  A    between atoms: C4_4  and  C6_6 
REMARK    6  A    between atoms: C5_5  and  C7_7 
REMARK    7  A    between atoms: C6_6  and  C8_8 
REMARK    8  A    between atoms: C7_7  and  C9_9 
REMARK    9  A    between atoms: C8_8  and  C10_10 
USER                              x       y       z     vdW  Elec       q    Type
USER                           _______ _______ _______ _____ _____    ______ ____
ROOT
ATOM      1  C1  MOL C   1      30.117  39.703  29.270 -0.39 -0.00    +0.000 C 
ENDROOT
BRANCH   1   2
ATOM      2  C2  MOL C   1      31.307  39.561  28.310 -0.49 -0.00    +0.000 C 
BRANCH   2   3
ATOM      3  C4  MOL C   1      30.751  38.933  26.990 -0.49 -0.00    +0.000 C 
BRANCH   3   4
ATOM      4  C6  MOL C   1      29.958  40.000  26.066 -0.47 -0.00    +0.000 C 
BRANCH   4   5
ATOM      5  C8  MOL C   1      29.999  39.767  24.573 -0.65 +0.00    -0.000 C 
BRANCH   5   6
ATOM      6  C10 MOL C   1      29.608  41.071  23.885 -0.77 +0.00    -0.005 C 
ATOM      7  C12 MOL C   1      28.401  41.042  22.997 -0.75 -0.00    +0.005 C 
ENDBRANCH   5   6
ENDBRANCH   4   5
ENDBRANCH   3   4
ENDBRANCH   2   3
ENDBRANCH   1   2
BRANCH   1   8
ATOM      8  C3  MOL C   1      29.489  41.113  28.930 -0.40 -0.00    +0.000 C 
BRANCH   8   9
ATOM      9  C5  MOL C   1      30.021  42.207  30.040 -0.34 -0.00    +0.000 C 
BRANCH   9  10
ATOM     10  C7  MOL C   1      31.250  43.095  29.614 -0.42 +0.00    -0.000 C 
BRANCH  10  11
ATOM     11  C9  MOL C   1      32.637  42.630  30.179 -0.58 +0.00    -0.005 C 
ATOM     12  C11 MOL C   1      33.706  43.666  29.682 -0.61 -0.00    +0.005 C 
ENDBRANCH  10  11
ENDBRANCH   9  10
ENDBRANCH   8   9
ENDBRANCH   1   8
TORSDOF 9
TER
ENDMDL
MODEL       17
USER    Run = 17
USER    DPF = lac2.dpf
USER  
USER    Estimated Free Energy of Binding    =   -3.69 kcal/mol  [=(1)+(2)+(3)-(4)]
USER    Estimated Inhibition Constant, Ki   =    1.97 mM (millimolar)  [Temperature = 298.15 K]
USER    
USER    (1) Final Intermolecular Energy     =   -6.31 kcal/mol
USER        vdW + Hbond + desolv Energy     =   -6.31 kcal/mol
USER        Electrostatic Energy            =   +0.00 kcal/mol
USER    (2) Final Total Internal Energy     =   -0.35 kcal/mol
USER    (3) Torsional Free Energy           =   +2.68 kcal/mol
USER    (4) Unbound System's Energy         =   -0.29 kcal/mol
USER    
USER    
USER    NEWDPF move PE_ligand.pdbqt
USER    NEWDPF about 3.037000 5.209000 3.149000
USER    NEWDPF tran0 29.132019 41.403302 27.983161
USER    NEWDPF quaternion0 -0.881895 0.155319 -0.343483 0.283121
USER    NEWDPF axisangle0 -0.919517 0.161945 -0.358136 147.106864
USER    NEWDPF quat0 -0.919517 0.161945 -0.358136 147.106864
USER    NEWDPF dihe0 82.15 -117.95 -180.00 171.69 14.08 -146.05 36.16 -101.04 -177.81 
USER  keepresnum = 1 
USER  
REMARK  9 active torsions:
REMARK  status: ('A' for Active; 'I' for Inactive)
REMARK    1  A    between atoms: C1_1  and  C2_2 
REMARK    2  A    between atoms: C1_1  and  C3_3 
REMARK    3  A    between atoms: C2_2  and  C4_4 
REMARK    4  A    between atoms: C3_3  and  C5_5 
REMARK    5  A    between atoms: C4_4  and  C6_6 
REMARK    6  A    between atoms: C5_5  and  C7_7 
REMARK    7  A    between atoms: C6_6  and  C8_8 
REMARK    8  A    between atoms: C7_7  and  C9_9 
REMARK    9  A    between atoms: C8_8  and  C10_10 
USER                              x       y       z     vdW  Elec       q    Type
USER                           _______ _______ _______ _____ _____    ______ ____
ROOT
ATOM      1  C1  MOL C   1      29.036  40.258  27.794 -0.42 -0.00    +0.000 C 
ENDROOT
BRANCH   1   2
ATOM      2  C2  MOL C   1      30.112  40.963  28.633 -0.40 -0.00    +0.000 C 
BRANCH   2   3
ATOM      3  C4  MOL C   1      31.332  39.988  28.716 -0.49 -0.00    +0.000 C 
BRANCH   3   4
ATOM      4  C6  MOL C   1      32.014  39.951  30.184 -0.44 -0.00    +0.000 C 
BRANCH   4   5
ATOM      5  C8  MOL C   1      32.872  41.137  30.563 -0.49 +0.00    -0.000 C 
BRANCH   5   6
ATOM      6  C10 MOL C   1      33.088  41.977  29.309 -0.60 +0.00    -0.005 C 
ATOM      7  C12 MOL C   1      32.991  43.466  29.456 -0.70 -0.00    +0.005 C 
ENDBRANCH   5   6
ENDBRANCH   4   5
ENDBRANCH   3   4
ENDBRANCH   2   3
ENDBRANCH   1   2
BRANCH   1   8
ATOM      8  C3  MOL C   1      29.252  40.798  26.324 -0.23 -0.00    +0.000 C 
BRANCH   8   9
ATOM      9  C5  MOL C   1      29.999  39.627  25.438 -0.49 -0.00    +0.000 C 
BRANCH   9  10
ATOM     10  C7  MOL C   1      29.762  39.668  23.882 -0.66 +0.00    -0.000 C 
BRANCH  10  11
ATOM     11  C9  MOL C   1      28.963  40.913  23.361 -0.78 +0.00    -0.005 C 
ATOM     12  C11 MOL C   1      29.946  42.135  23.389 -0.62 -0.00    +0.005 C 
ENDBRANCH  10  11
ENDBRANCH   9  10
ENDBRANCH   8   9
ENDBRANCH   1   8
TORSDOF 9
TER
ENDMDL
MODEL       18
USER    Run = 18
USER    DPF = lac2.dpf
USER  
USER    Estimated Free Energy of Binding    =   -3.68 kcal/mol  [=(1)+(2)+(3)-(4)]
USER    Estimated Inhibition Constant, Ki   =    1.99 mM (millimolar)  [Temperature = 298.15 K]
USER    
USER    (1) Final Intermolecular Energy     =   -6.21 kcal/mol
USER        vdW + Hbond + desolv Energy     =   -6.21 kcal/mol
USER        Electrostatic Energy            =   +0.00 kcal/mol
USER    (2) Final Total Internal Energy     =   -0.45 kcal/mol
USER    (3) Torsional Free Energy           =   +2.68 kcal/mol
USER    (4) Unbound System's Energy         =   -0.29 kcal/mol
USER    
USER    
USER    NEWDPF move PE_ligand.pdbqt
USER    NEWDPF about 3.037000 5.209000 3.149000
USER    NEWDPF tran0 30.144647 40.413708 29.237798
USER    NEWDPF quaternion0 0.768607 -0.556468 -0.143680 0.280968
USER    NEWDPF axisangle0 0.800868 -0.579825 -0.149711 147.364055
USER    NEWDPF quat0 0.800868 -0.579825 -0.149711 147.364055
USER    NEWDPF dihe0 67.91 179.94 -86.39 -126.07 -153.68 148.79 164.72 81.48 172.49 
USER  keepresnum = 1 
USER  
REMARK  9 active torsions:
REMARK  status: ('A' for Active; 'I' for Inactive)
REMARK    1  A    between atoms: C1_1  and  C2_2 
REMARK    2  A    between atoms: C1_1  and  C3_3 
REMARK    3  A    between atoms: C2_2  and  C4_4 
REMARK    4  A    between atoms: C3_3  and  C5_5 
REMARK    5  A    between atoms: C4_4  and  C6_6 
REMARK    6  A    between atoms: C5_5  and  C7_7 
REMARK    7  A    between atoms: C6_6  and  C8_8 
REMARK    8  A    between atoms: C7_7  and  C9_9 
REMARK    9  A    between atoms: C8_8  and  C10_10 
USER                              x       y       z     vdW  Elec       q    Type
USER                           _______ _______ _______ _____ _____    ______ ____
ROOT
ATOM      1  C1  MOL C   1      29.356  40.752  28.450 -0.43 -0.00    +0.000 C 
ENDROOT
BRANCH   1   2
ATOM      2  C2  MOL C   1      30.447  39.688  28.259 -0.50 -0.00    +0.000 C 
BRANCH   2   3
ATOM      3  C4  MOL C   1      30.504  39.367  26.730 -0.42 -0.00    +0.000 C 
BRANCH   3   4
ATOM      4  C6  MOL C   1      29.269  40.007  25.901 -0.41 -0.00    +0.000 C 
BRANCH   4   5
ATOM      5  C8  MOL C   1      29.618  41.036  24.851 -0.57 +0.00    -0.000 C 
BRANCH   5   6
ATOM      6  C10 MOL C   1      30.021  40.292  23.583 -0.74 +0.00    -0.005 C 
ATOM      7  C12 MOL C   1      29.259  40.609  22.330 -0.67 -0.00    +0.005 C 
ENDBRANCH   5   6
ENDBRANCH   4   5
ENDBRANCH   3   4
ENDBRANCH   2   3
ENDBRANCH   1   2
BRANCH   1   8
ATOM      8  C3  MOL C   1      30.145  42.099  28.697 -0.32 -0.00    +0.000 C 
BRANCH   8   9
ATOM      9  C5  MOL C   1      30.788  42.061  30.213 -0.37 -0.00    +0.000 C 
BRANCH   9  10
ATOM     10  C7  MOL C   1      32.226  41.435  30.348 -0.46 +0.00    -0.000 C 
BRANCH  10  11
ATOM     11  C9  MOL C   1      33.382  42.268  29.692 -0.63 +0.00    -0.005 C 
ATOM     12  C11 MOL C   1      32.800  43.690  29.373 -0.68 -0.00    +0.005 C 
ENDBRANCH  10  11
ENDBRANCH   9  10
ENDBRANCH   8   9
ENDBRANCH   1   8
TORSDOF 9
TER
ENDMDL
MODEL       19
USER    Run = 19
USER    DPF = lac2.dpf
USER  
USER    Estimated Free Energy of Binding    =   -3.25 kcal/mol  [=(1)+(2)+(3)-(4)]
USER    Estimated Inhibition Constant, Ki   =    4.15 mM (millimolar)  [Temperature = 298.15 K]
USER    
USER    (1) Final Intermolecular Energy     =   -5.27 kcal/mol
USER        vdW + Hbond + desolv Energy     =   -5.27 kcal/mol
USER        Electrostatic Energy            =   +0.00 kcal/mol
USER    (2) Final Total Internal Energy     =   -0.95 kcal/mol
USER    (3) Torsional Free Energy           =   +2.68 kcal/mol
USER    (4) Unbound System's Energy         =   -0.29 kcal/mol
USER    
USER    
USER    NEWDPF move PE_ligand.pdbqt
USER    NEWDPF about 3.037000 5.209000 3.149000
USER    NEWDPF tran0 28.762176 41.427051 29.727211
USER    NEWDPF quaternion0 -0.492355 0.321564 0.808242 -0.030453
USER    NEWDPF axisangle0 -0.492584 0.321713 0.808617 -176.509836
USER    NEWDPF quat0 -0.492584 0.321713 0.808617 -176.509836
USER    NEWDPF dihe0 -168.26 51.63 -161.90 -93.32 -25.54 127.61 -55.59 24.83 -10.15 
USER  keepresnum = 1 
USER  
REMARK  9 active torsions:
REMARK  status: ('A' for Active; 'I' for Inactive)
REMARK    1  A    between atoms: C1_1  and  C2_2 
REMARK    2  A    between atoms: C1_1  and  C3_3 
REMARK    3  A    between atoms: C2_2  and  C4_4 
REMARK    4  A    between atoms: C3_3  and  C5_5 
REMARK    5  A    between atoms: C4_4  and  C6_6 
REMARK    6  A    between atoms: C5_5  and  C7_7 
REMARK    7  A    between atoms: C6_6  and  C8_8 
REMARK    8  A    between atoms: C7_7  and  C9_9 
REMARK    9  A    between atoms: C8_8  and  C10_10 
USER                              x       y       z     vdW  Elec       q    Type
USER                           _______ _______ _______ _____ _____    ______ ____
ROOT
ATOM      1  C1  MOL C   1      27.908  41.179  30.480 -0.33 -0.00    +0.000 C 
ENDROOT
BRANCH   1   2
ATOM      2  C2  MOL C   1      27.803  41.205  28.948 -0.40 -0.00    +0.000 C 
BRANCH   2   3
ATOM      3  C4  MOL C   1      29.260  41.351  28.397 -0.45 -0.00    +0.000 C 
BRANCH   3   4
ATOM      4  C6  MOL C   1      29.624  40.248  27.270 -0.47 -0.00    +0.000 C 
BRANCH   4   5
ATOM      5  C8  MOL C   1      30.705  39.250  27.621 -0.56 +0.00    -0.000 C 
BRANCH   5   6
ATOM      6  C10 MOL C   1      31.065  39.450  29.089 -0.48 +0.00    -0.005 C 
ATOM      7  C12 MOL C   1      32.434  39.981  29.392 -0.47 -0.00    +0.005 C 
ENDBRANCH   5   6
ENDBRANCH   4   5
ENDBRANCH   3   4
ENDBRANCH   2   3
ENDBRANCH   1   2
BRANCH   1   8
ATOM      8  C3  MOL C   1      28.257  42.667  30.886 -0.39 -0.00    +0.000 C 
BRANCH   8   9
ATOM      9  C5  MOL C   1      29.550  42.643  31.907 -0.38 -0.00    +0.000 C 
BRANCH   9  10
ATOM     10  C7  MOL C   1      30.925  42.197  31.285 -0.36 +0.00    -0.000 C 
BRANCH  10  11
ATOM     11  C9  MOL C   1      31.911  43.365  30.937 -0.40 +0.00    -0.005 C 
ATOM     12  C11 MOL C   1      32.086  43.369  29.378 -0.59 -0.00    +0.005 C 
ENDBRANCH  10  11
ENDBRANCH   9  10
ENDBRANCH   8   9
ENDBRANCH   1   8
TORSDOF 9
TER
ENDMDL
MODEL       20
USER    Run = 20
USER    DPF = lac2.dpf
USER  
USER    Estimated Free Energy of Binding    =   -3.46 kcal/mol  [=(1)+(2)+(3)-(4)]
USER    Estimated Inhibition Constant, Ki   =    2.91 mM (millimolar)  [Temperature = 298.15 K]
USER    
USER    (1) Final Intermolecular Energy     =   -5.61 kcal/mol
USER        vdW + Hbond + desolv Energy     =   -5.61 kcal/mol
USER        Electrostatic Energy            =   +0.00 kcal/mol
USER    (2) Final Total Internal Energy     =   -0.82 kcal/mol
USER    (3) Torsional Free Energy           =   +2.68 kcal/mol
USER    (4) Unbound System's Energy         =   -0.29 kcal/mol
USER    
USER    
USER    NEWDPF move PE_ligand.pdbqt
USER    NEWDPF about 3.037000 5.209000 3.149000
USER    NEWDPF tran0 31.226422 40.996007 29.082024
USER    NEWDPF quaternion0 0.712974 -0.378462 -0.204931 -0.553568
USER    NEWDPF axisangle0 0.856113 -0.454444 -0.246073 -112.775731
USER    NEWDPF quat0 0.856113 -0.454444 -0.246073 -112.775731
USER    NEWDPF dihe0 -176.95 -128.79 -177.42 -97.93 -158.34 2.37 106.42 -14.60 34.36 
USER  keepresnum = 1 
USER  
REMARK  9 active torsions:
REMARK  status: ('A' for Active; 'I' for Inactive)
REMARK    1  A    between atoms: C1_1  and  C2_2 
REMARK    2  A    between atoms: C1_1  and  C3_3 
REMARK    3  A    between atoms: C2_2  and  C4_4 
REMARK    4  A    between atoms: C3_3  and  C5_5 
REMARK    5  A    between atoms: C4_4  and  C6_6 
REMARK    6  A    between atoms: C5_5  and  C7_7 
REMARK    7  A    between atoms: C6_6  and  C8_8 
REMARK    8  A    between atoms: C7_7  and  C9_9 
REMARK    9  A    between atoms: C8_8  and  C10_10 
USER                              x       y       z     vdW  Elec       q    Type
USER                           _______ _______ _______ _____ _____    ______ ____
ROOT
ATOM      1  C1  MOL C   1      30.344  40.510  29.666 -0.34 -0.00    +0.000 C 
ENDROOT
BRANCH   1   2
ATOM      2  C2  MOL C   1      31.657  39.829  29.254 -0.48 -0.00    +0.000 C 
BRANCH   2   3
ATOM      3  C4  MOL C   1      32.820  40.720  29.801 -0.50 -0.00    +0.000 C 
BRANCH   3   4
ATOM      4  C6  MOL C   1      32.937  42.145  29.043 -0.57 -0.00    +0.000 C 
BRANCH   4   5
ATOM      5  C8  MOL C   1      32.603  43.375  29.857 -0.65 +0.00    -0.000 C 
BRANCH   5   6
ATOM      6  C10 MOL C   1      32.026  42.911  31.190 -0.46 +0.00    -0.005 C 
ATOM      7  C12 MOL C   1      30.643  43.376  31.537 -0.43 -0.00    +0.005 C 
ENDBRANCH   5   6
ENDBRANCH   4   5
ENDBRANCH   3   4
ENDBRANCH   2   3
ENDBRANCH   1   2
BRANCH   1   8
ATOM      8  C3  MOL C   1      29.640  40.891  28.303 -0.44 -0.00    +0.000 C 
BRANCH   8   9
ATOM      9  C5  MOL C   1      28.359  41.875  28.630 -0.43 -0.00    +0.000 C 
BRANCH   9  10
ATOM     10  C7  MOL C   1      27.271  41.303  29.612 -0.40 +0.00    -0.000 C 
BRANCH  10  11
ATOM     11  C9  MOL C   1      27.425  41.744  31.110 -0.37 +0.00    -0.005 C 
ATOM     12  C11 MOL C   1      27.208  43.297  31.156 -0.53 -0.00    +0.005 C 
ENDBRANCH  10  11
ENDBRANCH   9  10
ENDBRANCH   8   9
ENDBRANCH   1   8
TORSDOF 9
TER
ENDMDL
MODEL       21
USER    Run = 21
USER    DPF = lac2.dpf
USER  
USER    Estimated Free Energy of Binding    =   -3.55 kcal/mol  [=(1)+(2)+(3)-(4)]
USER    Estimated Inhibition Constant, Ki   =    2.49 mM (millimolar)  [Temperature = 298.15 K]
USER    
USER    (1) Final Intermolecular Energy     =   -5.79 kcal/mol
USER        vdW + Hbond + desolv Energy     =   -5.79 kcal/mol
USER        Electrostatic Energy            =   +0.00 kcal/mol
USER    (2) Final Total Internal Energy     =   -0.73 kcal/mol
USER    (3) Torsional Free Energy           =   +2.68 kcal/mol
USER    (4) Unbound System's Energy         =   -0.29 kcal/mol
USER    
USER    
USER    NEWDPF move PE_ligand.pdbqt
USER    NEWDPF about 3.037000 5.209000 3.149000
USER    NEWDPF tran0 29.021249 40.802664 29.729155
USER    NEWDPF quaternion0 0.870178 -0.303689 0.382701 -0.064055
USER    NEWDPF axisangle0 0.871969 -0.304314 0.383488 -172.654793
USER    NEWDPF quat0 0.871969 -0.304314 0.383488 -172.654793
USER    NEWDPF dihe0 126.52 -149.78 -58.93 -0.48 40.77 -29.85 -65.99 -53.53 -176.28 
USER  keepresnum = 1 
USER  
REMARK  9 active torsions:
REMARK  status: ('A' for Active; 'I' for Inactive)
REMARK    1  A    between atoms: C1_1  and  C2_2 
REMARK    2  A    between atoms: C1_1  and  C3_3 
REMARK    3  A    between atoms: C2_2  and  C4_4 
REMARK    4  A    between atoms: C3_3  and  C5_5 
REMARK    5  A    between atoms: C4_4  and  C6_6 
REMARK    6  A    between atoms: C5_5  and  C7_7 
REMARK    7  A    between atoms: C6_6  and  C8_8 
REMARK    8  A    between atoms: C7_7  and  C9_9 
REMARK    9  A    between atoms: C8_8  and  C10_10 
USER                              x       y       z     vdW  Elec       q    Type
USER                           _______ _______ _______ _____ _____    ______ ____
ROOT
ATOM      1  C1  MOL C   1      28.934  39.886  29.016 -0.36 -0.00    +0.000 C 
ENDROOT
BRANCH   1   2
ATOM      2  C2  MOL C   1      29.797  39.985  30.281 -0.28 -0.00    +0.000 C 
BRANCH   2   3
ATOM      3  C4  MOL C   1      30.949  38.938  30.127 -0.40 -0.00    +0.000 C 
BRANCH   3   4
ATOM      4  C6  MOL C   1      32.421  39.611  30.121 -0.46 -0.00    +0.000 C 
BRANCH   4   5
ATOM      5  C8  MOL C   1      32.621  40.797  29.205 -0.51 +0.00    -0.000 C 
BRANCH   5   6
ATOM      6  C10 MOL C   1      32.782  42.038  30.076 -0.56 +0.00    -0.005 C 
ATOM      7  C12 MOL C   1      32.945  43.352  29.372 -0.70 -0.00    +0.005 C 
ENDBRANCH   5   6
ENDBRANCH   4   5
ENDBRANCH   3   4
ENDBRANCH   2   3
ENDBRANCH   1   2
BRANCH   1   8
ATOM      8  C3  MOL C   1      29.519  40.983  28.040 -0.44 -0.00    +0.000 C 
BRANCH   8   9
ATOM      9  C5  MOL C   1      29.253  40.501  26.487 -0.37 -0.00    +0.000 C 
BRANCH   9  10
ATOM     10  C7  MOL C   1      30.375  39.617  25.826 -0.36 +0.00    -0.000 C 
BRANCH  10  11
ATOM     11  C9  MOL C   1      30.270  39.457  24.270 -0.62 +0.00    -0.005 C 
ATOM     12  C11 MOL C   1      29.940  40.875  23.684 -0.75 -0.00    +0.005 C 
ENDBRANCH  10  11
ENDBRANCH   9  10
ENDBRANCH   8   9
ENDBRANCH   1   8
TORSDOF 9
TER
ENDMDL
MODEL       22
USER    Run = 22
USER    DPF = lac2.dpf
USER  
USER    Estimated Free Energy of Binding    =   -4.22 kcal/mol  [=(1)+(2)+(3)-(4)]
USER    Estimated Inhibition Constant, Ki   =  801.91 uM (micromolar)  [Temperature = 298.15 K]
USER    
USER    (1) Final Intermolecular Energy     =   -6.56 kcal/mol
USER        vdW + Hbond + desolv Energy     =   -6.56 kcal/mol
USER        Electrostatic Energy            =   -0.00 kcal/mol
USER    (2) Final Total Internal Energy     =   -0.64 kcal/mol
USER    (3) Torsional Free Energy           =   +2.68 kcal/mol
USER    (4) Unbound System's Energy         =   -0.29 kcal/mol
USER    
USER    
USER    NEWDPF move PE_ligand.pdbqt
USER    NEWDPF about 3.037000 5.209000 3.149000
USER    NEWDPF tran0 29.087207 40.221653 23.487814
USER    NEWDPF quaternion0 -0.668668 -0.335721 -0.039326 -0.662290
USER    NEWDPF axisangle0 -0.892453 -0.448078 -0.052487 -97.050515
USER    NEWDPF quat0 -0.892453 -0.448078 -0.052487 -97.050515
USER    NEWDPF dihe0 -65.62 -10.18 14.94 4.33 149.53 -158.87 16.28 47.74 1.62 
USER  keepresnum = 1 
USER  
REMARK  9 active torsions:
REMARK  status: ('A' for Active; 'I' for Inactive)
REMARK    1  A    between atoms: C1_1  and  C2_2 
REMARK    2  A    between atoms: C1_1  and  C3_3 
REMARK    3  A    between atoms: C2_2  and  C4_4 
REMARK    4  A    between atoms: C3_3  and  C5_5 
REMARK    5  A    between atoms: C4_4  and  C6_6 
REMARK    6  A    between atoms: C5_5  and  C7_7 
REMARK    7  A    between atoms: C6_6  and  C8_8 
REMARK    8  A    between atoms: C7_7  and  C9_9 
REMARK    9  A    between atoms: C8_8  and  C10_10 
USER                              x       y       z     vdW  Elec       q    Type
USER                           _______ _______ _______ _____ _____    ______ ____
ROOT
ATOM      1  C1  MOL C   1      29.145  40.961  22.589 -0.77 -0.00    +0.000 C 
ENDROOT
BRANCH   1   2
ATOM      2  C2  MOL C   1      29.926  41.056  23.908 -0.73 -0.00    +0.000 C 
BRANCH   2   3
ATOM      3  C4  MOL C   1      29.939  39.622  24.531 -0.65 -0.00    +0.000 C 
BRANCH   3   4
ATOM      4  C6  MOL C   1      30.229  39.626  26.124 -0.41 -0.00    +0.000 C 
BRANCH   4   5
ATOM      5  C8  MOL C   1      29.246  40.379  26.991 -0.45 +0.00    -0.000 C 
BRANCH   5   6
ATOM      6  C10 MOL C   1      29.763  40.341  28.424 -0.43 +0.00    -0.005 C 
ATOM      7  C12 MOL C   1      30.918  39.429  28.712 -0.50 -0.00    +0.005 C 
ENDBRANCH   5   6
ENDBRANCH   4   5
ENDBRANCH   3   4
ENDBRANCH   2   3
ENDBRANCH   1   2
BRANCH   1   8
ATOM      8  C3  MOL C   1      27.627  41.100  23.008 -0.48 -0.00    +0.000 C 
BRANCH   8   9
ATOM      9  C5  MOL C   1      26.905  39.626  22.865 -0.31 -0.00    +0.000 C 
BRANCH   9  10
ATOM     10  C7  MOL C   1      25.854  39.250  23.975 -0.51 +0.00    -0.000 C 
BRANCH  10  11
ATOM     11  C9  MOL C   1      25.528  37.721  24.096 -0.70 +0.00    -0.005 C 
ATOM     12  C11 MOL C   1      24.411  37.574  25.187 -0.62 -0.00    +0.005 C 
ENDBRANCH  10  11
ENDBRANCH   9  10
ENDBRANCH   8   9
ENDBRANCH   1   8
TORSDOF 9
TER
ENDMDL
MODEL       23
USER    Run = 23
USER    DPF = lac2.dpf
USER  
USER    Estimated Free Energy of Binding    =   -3.43 kcal/mol  [=(1)+(2)+(3)-(4)]
USER    Estimated Inhibition Constant, Ki   =    3.05 mM (millimolar)  [Temperature = 298.15 K]
USER    
USER    (1) Final Intermolecular Energy     =   -5.53 kcal/mol
USER        vdW + Hbond + desolv Energy     =   -5.53 kcal/mol
USER        Electrostatic Energy            =   +0.00 kcal/mol
USER    (2) Final Total Internal Energy     =   -0.87 kcal/mol
USER    (3) Torsional Free Energy           =   +2.68 kcal/mol
USER    (4) Unbound System's Energy         =   -0.29 kcal/mol
USER    
USER    
USER    NEWDPF move PE_ligand.pdbqt
USER    NEWDPF about 3.037000 5.209000 3.149000
USER    NEWDPF tran0 31.970815 39.215097 31.182778
USER    NEWDPF quaternion0 -0.450465 0.879161 0.086497 -0.129132
USER    NEWDPF axisangle0 -0.454269 0.886584 0.087227 -165.161128
USER    NEWDPF quat0 -0.454269 0.886584 0.087227 -165.161128
USER    NEWDPF dihe0 55.78 -131.37 -146.47 55.31 -30.03 158.78 -147.94 -72.45 175.99 
USER  keepresnum = 1 
USER  
REMARK  9 active torsions:
REMARK  status: ('A' for Active; 'I' for Inactive)
REMARK    1  A    between atoms: C1_1  and  C2_2 
REMARK    2  A    between atoms: C1_1  and  C3_3 
REMARK    3  A    between atoms: C2_2  and  C4_4 
REMARK    4  A    between atoms: C3_3  and  C5_5 
REMARK    5  A    between atoms: C4_4  and  C6_6 
REMARK    6  A    between atoms: C5_5  and  C7_7 
REMARK    7  A    between atoms: C6_6  and  C8_8 
REMARK    8  A    between atoms: C7_7  and  C9_9 
REMARK    9  A    between atoms: C8_8  and  C10_10 
USER                              x       y       z     vdW  Elec       q    Type
USER                           _______ _______ _______ _____ _____    ______ ____
ROOT
ATOM      1  C1  MOL C   1      31.431  40.011  30.525 -0.35 -0.00    +0.000 C 
ENDROOT
BRANCH   1   2
ATOM      2  C2  MOL C   1      31.244  38.488  30.462 -0.38 -0.00    +0.000 C 
BRANCH   2   3
ATOM      3  C4  MOL C   1      30.517  38.176  29.113 -0.44 -0.00    +0.000 C 
BRANCH   3   4
ATOM      4  C6  MOL C   1      30.994  39.136  27.900 -0.53 -0.00    +0.000 C 
BRANCH   4   5
ATOM      5  C8  MOL C   1      29.930  39.997  27.258 -0.47 +0.00    -0.000 C 
BRANCH   5   6
ATOM      6  C10 MOL C   1      28.797  40.168  28.264 -0.38 +0.00    -0.005 C 
ATOM      7  C12 MOL C   1      28.598  41.535  28.846 -0.43 -0.00    +0.005 C 
ENDBRANCH   5   6
ENDBRANCH   4   5
ENDBRANCH   3   4
ENDBRANCH   2   3
ENDBRANCH   1   2
BRANCH   1   8
ATOM      8  C3  MOL C   1      32.941  40.249  30.123 -0.48 -0.00    +0.000 C 
BRANCH   8   9
ATOM      9  C5  MOL C   1      33.002  41.453  29.000 -0.47 -0.00    +0.000 C 
BRANCH   9  10
ATOM     10  C7  MOL C   1      33.374  42.888  29.531 -0.67 +0.00    -0.000 C 
BRANCH  10  11
ATOM     11  C9  MOL C   1      32.206  43.933  29.507 -0.51 +0.00    -0.005 C 
ATOM     12  C11 MOL C   1      31.083  43.390  30.458 -0.41 -0.00    +0.005 C 
ENDBRANCH  10  11
ENDBRANCH   9  10
ENDBRANCH   8   9
ENDBRANCH   1   8
TORSDOF 9
TER
ENDMDL
MODEL       24
USER    Run = 24
USER    DPF = lac2.dpf
USER  
USER    Estimated Free Energy of Binding    =   -4.29 kcal/mol  [=(1)+(2)+(3)-(4)]
USER    Estimated Inhibition Constant, Ki   =  717.49 uM (micromolar)  [Temperature = 298.15 K]
USER    
USER    (1) Final Intermolecular Energy     =   -6.68 kcal/mol
USER        vdW + Hbond + desolv Energy     =   -6.68 kcal/mol
USER        Electrostatic Energy            =   -0.00 kcal/mol
USER    (2) Final Total Internal Energy     =   -0.58 kcal/mol
USER    (3) Torsional Free Energy           =   +2.68 kcal/mol
USER    (4) Unbound System's Energy         =   -0.29 kcal/mol
USER    
USER    
USER    NEWDPF move PE_ligand.pdbqt
USER    NEWDPF about 3.037000 5.209000 3.149000
USER    NEWDPF tran0 30.471080 41.010569 27.899725
USER    NEWDPF quaternion0 0.376335 -0.609616 0.331928 -0.613648
USER    NEWDPF axisangle0 0.476627 -0.772077 0.420385 -104.292489
USER    NEWDPF quat0 0.476627 -0.772077 0.420385 -104.292489
USER    NEWDPF dihe0 104.83 -168.66 144.11 -3.66 41.81 -153.62 -18.36 -7.86 -67.27 
USER  keepresnum = 1 
USER  
REMARK  9 active torsions:
REMARK  status: ('A' for Active; 'I' for Inactive)
REMARK    1  A    between atoms: C1_1  and  C2_2 
REMARK    2  A    between atoms: C1_1  and  C3_3 
REMARK    3  A    between atoms: C2_2  and  C4_4 
REMARK    4  A    between atoms: C3_3  and  C5_5 
REMARK    5  A    between atoms: C4_4  and  C6_6 
REMARK    6  A    between atoms: C5_5  and  C7_7 
REMARK    7  A    between atoms: C6_6  and  C8_8 
REMARK    8  A    between atoms: C7_7  and  C9_9 
REMARK    9  A    between atoms: C8_8  and  C10_10 
USER                              x       y       z     vdW  Elec       q    Type
USER                           _______ _______ _______ _____ _____    ______ ____
ROOT
ATOM      1  C1  MOL C   1      29.329  40.794  27.821 -0.46 -0.00    +0.000 C 
ENDROOT
BRANCH   1   2
ATOM      2  C2  MOL C   1      30.198  40.690  29.083 -0.39 -0.00    +0.000 C 
BRANCH   2   3
ATOM      3  C4  MOL C   1      31.478  39.883  28.686 -0.49 -0.00    +0.000 C 
BRANCH   3   4
ATOM      4  C6  MOL C   1      32.657  39.982  29.791 -0.48 -0.00    +0.000 C 
BRANCH   4   5
ATOM      5  C8  MOL C   1      32.988  41.363  30.308 -0.53 +0.00    -0.000 C 
BRANCH   5   6
ATOM      6  C10 MOL C   1      33.101  42.297  29.107 -0.60 +0.00    -0.005 C 
ATOM      7  C12 MOL C   1      32.975  43.768  29.368 -0.70 -0.00    +0.005 C 
ENDBRANCH   5   6
ENDBRANCH   4   5
ENDBRANCH   3   4
ENDBRANCH   2   3
ENDBRANCH   1   2
BRANCH   1   8
ATOM      8  C3  MOL C   1      29.919  39.709  26.834 -0.44 -0.00    +0.000 C 
BRANCH   8   9
ATOM      9  C5  MOL C   1      29.383  40.038  25.311 -0.51 -0.00    +0.000 C 
BRANCH   9  10
ATOM     10  C7  MOL C   1      30.368  39.690  24.132 -0.63 +0.00    -0.000 C 
BRANCH  10  11
ATOM     11  C9  MOL C   1      29.951  40.249  22.727 -0.64 +0.00    -0.005 C 
ATOM     12  C11 MOL C   1      29.040  41.501  22.982 -0.80 -0.00    +0.005 C 
ENDBRANCH  10  11
ENDBRANCH   9  10
ENDBRANCH   8   9
ENDBRANCH   1   8
TORSDOF 9
TER
ENDMDL
MODEL       25
USER    Run = 25
USER    DPF = lac2.dpf
USER  
USER    Estimated Free Energy of Binding    =   -3.27 kcal/mol  [=(1)+(2)+(3)-(4)]
USER    Estimated Inhibition Constant, Ki   =    4.03 mM (millimolar)  [Temperature = 298.15 K]
USER    
USER    (1) Final Intermolecular Energy     =   -5.33 kcal/mol
USER        vdW + Hbond + desolv Energy     =   -5.33 kcal/mol
USER        Electrostatic Energy            =   +0.00 kcal/mol
USER    (2) Final Total Internal Energy     =   -0.91 kcal/mol
USER    (3) Torsional Free Energy           =   +2.68 kcal/mol
USER    (4) Unbound System's Energy         =   -0.29 kcal/mol
USER    
USER    
USER    NEWDPF move PE_ligand.pdbqt
USER    NEWDPF about 3.037000 5.209000 3.149000
USER    NEWDPF tran0 30.396704 41.275084 28.265905
USER    NEWDPF quaternion0 -0.135821 -0.522895 0.743177 -0.394743
USER    NEWDPF axisangle0 -0.147826 -0.569112 0.808863 -133.500156
USER    NEWDPF quat0 -0.147826 -0.569112 0.808863 -133.500156
USER    NEWDPF dihe0 167.60 149.54 -133.70 59.65 152.33 -174.98 -101.61 74.79 -179.69 
USER  keepresnum = 1 
USER  
REMARK  9 active torsions:
REMARK  status: ('A' for Active; 'I' for Inactive)
REMARK    1  A    between atoms: C1_1  and  C2_2 
REMARK    2  A    between atoms: C1_1  and  C3_3 
REMARK    3  A    between atoms: C2_2  and  C4_4 
REMARK    4  A    between atoms: C3_3  and  C5_5 
REMARK    5  A    between atoms: C4_4  and  C6_6 
REMARK    6  A    between atoms: C5_5  and  C7_7 
REMARK    7  A    between atoms: C6_6  and  C8_8 
REMARK    8  A    between atoms: C7_7  and  C9_9 
REMARK    9  A    between atoms: C8_8  and  C10_10 
USER                              x       y       z     vdW  Elec       q    Type
USER                           _______ _______ _______ _____ _____    ______ ____
ROOT
ATOM      1  C1  MOL C   1      29.611  40.563  27.783 -0.45 -0.00    +0.000 C 
ENDROOT
BRANCH   1   2
ATOM      2  C2  MOL C   1      29.324  41.864  28.547 -0.43 -0.00    +0.000 C 
BRANCH   2   3
ATOM      3  C4  MOL C   1      27.829  41.802  29.001 -0.42 -0.00    +0.000 C 
BRANCH   3   4
ATOM      4  C6  MOL C   1      27.616  40.963  30.368 -0.34 -0.00    +0.000 C 
BRANCH   4   5
ATOM      5  C8  MOL C   1      28.284  41.509  31.610 -0.28 +0.00    -0.000 C 
BRANCH   5   6
ATOM      6  C10 MOL C   1      28.237  43.031  31.534 -0.44 +0.00    -0.005 C 
ATOM      7  C12 MOL C   1      29.480  43.775  31.921 -0.49 -0.00    +0.005 C 
ENDBRANCH   5   6
ENDBRANCH   4   5
ENDBRANCH   3   4
ENDBRANCH   2   3
ENDBRANCH   1   2
BRANCH   1   8
ATOM      8  C3  MOL C   1      30.281  39.608  28.850 -0.45 -0.00    +0.000 C 
BRANCH   8   9
ATOM      9  C5  MOL C   1      31.870  40.017  28.997 -0.49 -0.00    +0.000 C 
BRANCH   9  10
ATOM     10  C7  MOL C   1      32.377  40.344  30.451 -0.45 +0.00    -0.000 C 
BRANCH  10  11
ATOM     11  C9  MOL C   1      32.628  41.863  30.745 -0.46 +0.00    -0.005 C 
ATOM     12  C11 MOL C   1      32.715  42.592  29.359 -0.64 -0.00    +0.005 C 
ENDBRANCH  10  11
ENDBRANCH   9  10
ENDBRANCH   8   9
ENDBRANCH   1   8
TORSDOF 9
TER
ENDMDL
MODEL       26
USER    Run = 26
USER    DPF = lac2.dpf
USER  
USER    Estimated Free Energy of Binding    =   -3.66 kcal/mol  [=(1)+(2)+(3)-(4)]
USER    Estimated Inhibition Constant, Ki   =    2.07 mM (millimolar)  [Temperature = 298.15 K]
USER    
USER    (1) Final Intermolecular Energy     =   -6.18 kcal/mol
USER        vdW + Hbond + desolv Energy     =   -6.18 kcal/mol
USER        Electrostatic Energy            =   -0.00 kcal/mol
USER    (2) Final Total Internal Energy     =   -0.45 kcal/mol
USER    (3) Torsional Free Energy           =   +2.68 kcal/mol
USER    (4) Unbound System's Energy         =   -0.29 kcal/mol
USER    
USER    
USER    NEWDPF move PE_ligand.pdbqt
USER    NEWDPF about 3.037000 5.209000 3.149000
USER    NEWDPF tran0 31.206976 40.829525 28.979043
USER    NEWDPF quaternion0 -0.065827 0.535692 -0.700924 -0.466270
USER    NEWDPF axisangle0 -0.074411 0.605546 -0.792324 -124.415148
USER    NEWDPF quat0 -0.074411 0.605546 -0.792324 -124.415148
USER    NEWDPF dihe0 37.29 180.00 10.23 -112.20 -106.14 143.56 74.07 36.69 115.06 
USER  keepresnum = 1 
USER  
REMARK  9 active torsions:
REMARK  status: ('A' for Active; 'I' for Inactive)
REMARK    1  A    between atoms: C1_1  and  C2_2 
REMARK    2  A    between atoms: C1_1  and  C3_3 
REMARK    3  A    between atoms: C2_2  and  C4_4 
REMARK    4  A    between atoms: C3_3  and  C5_5 
REMARK    5  A    between atoms: C4_4  and  C6_6 
REMARK    6  A    between atoms: C5_5  and  C7_7 
REMARK    7  A    between atoms: C6_6  and  C8_8 
REMARK    8  A    between atoms: C7_7  and  C9_9 
REMARK    9  A    between atoms: C8_8  and  C10_10 
USER                              x       y       z     vdW  Elec       q    Type
USER                           _______ _______ _______ _____ _____    ______ ____
ROOT
ATOM      1  C1  MOL C   1      32.228  40.393  28.628 -0.33 -0.00    +0.000 C 
ENDROOT
BRANCH   1   2
ATOM      2  C2  MOL C   1      30.857  39.708  28.537 -0.50 -0.00    +0.000 C 
BRANCH   2   3
ATOM      3  C4  MOL C   1      30.752  39.092  27.103 -0.52 -0.00    +0.000 C 
BRANCH   3   4
ATOM      4  C6  MOL C   1      29.854  39.985  26.095 -0.47 -0.00    +0.000 C 
BRANCH   4   5
ATOM      5  C8  MOL C   1      29.986  39.681  24.620 -0.64 +0.00    -0.000 C 
BRANCH   5   6
ATOM      6  C10 MOL C   1      29.051  40.620  23.865 -0.70 +0.00    -0.005 C 
ATOM      7  C12 MOL C   1      29.631  41.911  23.369 -0.77 -0.00    +0.005 C 
ENDBRANCH   5   6
ENDBRANCH   4   5
ENDBRANCH   3   4
ENDBRANCH   2   3
ENDBRANCH   1   2
BRANCH   1   8
ATOM      8  C3  MOL C   1      32.486  40.577  30.177 -0.48 -0.00    +0.000 C 
BRANCH   8   9
ATOM      9  C5  MOL C   1      32.612  42.188  30.500 -0.51 -0.00    +0.000 C 
BRANCH   9  10
ATOM     10  C7  MOL C   1      31.260  42.965  30.718 -0.46 +0.00    -0.000 C 
BRANCH  10  11
ATOM     11  C9  MOL C   1      30.648  42.851  32.157 -0.40 +0.00    -0.005 C 
ATOM     12  C11 MOL C   1      31.764  42.254  33.085 -0.41 -0.00    +0.005 C 
ENDBRANCH  10  11
ENDBRANCH   9  10
ENDBRANCH   8   9
ENDBRANCH   1   8
TORSDOF 9
TER
ENDMDL
MODEL       27
USER    Run = 27
USER    DPF = lac2.dpf
USER  
USER    Estimated Free Energy of Binding    =   -3.90 kcal/mol  [=(1)+(2)+(3)-(4)]
USER    Estimated Inhibition Constant, Ki   =    1.37 mM (millimolar)  [Temperature = 298.15 K]
USER    
USER    (1) Final Intermolecular Energy     =   -6.31 kcal/mol
USER        vdW + Hbond + desolv Energy     =   -6.31 kcal/mol
USER        Electrostatic Energy            =   +0.00 kcal/mol
USER    (2) Final Total Internal Energy     =   -0.57 kcal/mol
USER    (3) Torsional Free Energy           =   +2.68 kcal/mol
USER    (4) Unbound System's Energy         =   -0.29 kcal/mol
USER    
USER    
USER    NEWDPF move PE_ligand.pdbqt
USER    NEWDPF about 3.037000 5.209000 3.149000
USER    NEWDPF tran0 30.251890 38.963057 28.543082
USER    NEWDPF quaternion0 0.887222 0.148349 0.261108 0.350218
USER    NEWDPF axisangle0 0.947210 0.158380 0.278762 138.998753
USER    NEWDPF quat0 0.947210 0.158380 0.278762 138.998753
USER    NEWDPF dihe0 175.36 128.94 -103.10 -35.07 -83.65 -71.42 57.61 -41.83 -90.97 
USER  keepresnum = 1 
USER  
REMARK  9 active torsions:
REMARK  status: ('A' for Active; 'I' for Inactive)
REMARK    1  A    between atoms: C1_1  and  C2_2 
REMARK    2  A    between atoms: C1_1  and  C3_3 
REMARK    3  A    between atoms: C2_2  and  C4_4 
REMARK    4  A    between atoms: C3_3  and  C5_5 
REMARK    5  A    between atoms: C4_4  and  C6_6 
REMARK    6  A    between atoms: C5_5  and  C7_7 
REMARK    7  A    between atoms: C6_6  and  C8_8 
REMARK    8  A    between atoms: C7_7  and  C9_9 
REMARK    9  A    between atoms: C8_8  and  C10_10 
USER                              x       y       z     vdW  Elec       q    Type
USER                           _______ _______ _______ _____ _____    ______ ____
ROOT
ATOM      1  C1  MOL C   1      30.827  38.862  27.535 -0.54 -0.00    +0.000 C 
ENDROOT
BRANCH   1   2
ATOM      2  C2  MOL C   1      31.427  39.222  28.901 -0.47 -0.00    +0.000 C 
BRANCH   2   3
ATOM      3  C4  MOL C   1      30.950  40.674  29.237 -0.41 -0.00    +0.000 C 
BRANCH   3   4
ATOM      4  C6  MOL C   1      32.171  41.726  29.374 -0.53 -0.00    +0.000 C 
BRANCH   4   5
ATOM      5  C8  MOL C   1      31.819  43.115  29.856 -0.54 +0.00    -0.000 C 
BRANCH   5   6
ATOM      6  C10 MOL C   1      31.336  43.001  31.298 -0.45 +0.00    -0.005 C 
ATOM      7  C12 MOL C   1      30.028  43.651  31.635 -0.46 -0.00    +0.005 C 
ENDBRANCH   5   6
ENDBRANCH   4   5
ENDBRANCH   3   4
ENDBRANCH   2   3
ENDBRANCH   1   2
BRANCH   1   8
ATOM      8  C3  MOL C   1      29.830  40.044  27.206 -0.45 -0.00    +0.000 C 
BRANCH   8   9
ATOM      9  C5  MOL C   1      29.478  40.002  25.597 -0.50 -0.00    +0.000 C 
BRANCH   9  10
ATOM     10  C7  MOL C   1      29.606  41.363  24.817 -0.51 +0.00    -0.000 C 
BRANCH  10  11
ATOM     11  C9  MOL C   1      29.769  41.229  23.263 -0.77 +0.00    -0.005 C 
ATOM     12  C11 MOL C   1      30.676  39.976  23.002 -0.68 -0.00    +0.005 C 
ENDBRANCH  10  11
ENDBRANCH   9  10
ENDBRANCH   8   9
ENDBRANCH   1   8
TORSDOF 9
TER
ENDMDL
MODEL       28
USER    Run = 28
USER    DPF = lac2.dpf
USER  
USER    Estimated Free Energy of Binding    =   -3.42 kcal/mol  [=(1)+(2)+(3)-(4)]
USER    Estimated Inhibition Constant, Ki   =    3.11 mM (millimolar)  [Temperature = 298.15 K]
USER    
USER    (1) Final Intermolecular Energy     =   -5.46 kcal/mol
USER        vdW + Hbond + desolv Energy     =   -5.46 kcal/mol
USER        Electrostatic Energy            =   -0.00 kcal/mol
USER    (2) Final Total Internal Energy     =   -0.93 kcal/mol
USER    (3) Torsional Free Energy           =   +2.68 kcal/mol
USER    (4) Unbound System's Energy         =   -0.29 kcal/mol
USER    
USER    
USER    NEWDPF move PE_ligand.pdbqt
USER    NEWDPF about 3.037000 5.209000 3.149000
USER    NEWDPF tran0 29.798044 42.879537 30.867618
USER    NEWDPF quaternion0 0.408928 0.568506 0.713134 -0.031923
USER    NEWDPF axisangle0 0.409136 0.568796 0.713498 -176.341259
USER    NEWDPF quat0 0.409136 0.568796 0.713498 -176.341259
USER    NEWDPF dihe0 161.32 107.27 55.28 89.35 -171.48 165.09 98.51 -27.70 24.17 
USER  keepresnum = 1 
USER  
REMARK  9 active torsions:
REMARK  status: ('A' for Active; 'I' for Inactive)
REMARK    1  A    between atoms: C1_1  and  C2_2 
REMARK    2  A    between atoms: C1_1  and  C3_3 
REMARK    3  A    between atoms: C2_2  and  C4_4 
REMARK    4  A    between atoms: C3_3  and  C5_5 
REMARK    5  A    between atoms: C4_4  and  C6_6 
REMARK    6  A    between atoms: C5_5  and  C7_7 
REMARK    7  A    between atoms: C6_6  and  C8_8 
REMARK    8  A    between atoms: C7_7  and  C9_9 
REMARK    9  A    between atoms: C8_8  and  C10_10 
USER                              x       y       z     vdW  Elec       q    Type
USER                           _______ _______ _______ _____ _____    ______ ____
ROOT
ATOM      1  C1  MOL C   1      30.708  43.111  31.557 -0.43 -0.00    +0.000 C 
ENDROOT
BRANCH   1   2
ATOM      2  C2  MOL C   1      29.308  43.734  31.646 -0.46 -0.00    +0.000 C 
BRANCH   2   3
ATOM      3  C4  MOL C   1      28.281  42.568  31.469 -0.40 -0.00    +0.000 C 
BRANCH   3   4
ATOM      4  C6  MOL C   1      28.125  42.089  29.931 -0.38 -0.00    +0.000 C 
BRANCH   4   5
ATOM      5  C8  MOL C   1      28.894  40.853  29.523 -0.34 +0.00    -0.000 C 
BRANCH   5   6
ATOM      6  C10 MOL C   1      29.548  41.135  28.174 -0.43 +0.00    -0.005 C 
ATOM      7  C12 MOL C   1      29.615  40.001  27.195 -0.48 -0.00    +0.005 C 
ENDBRANCH   5   6
ENDBRANCH   4   5
ENDBRANCH   3   4
ENDBRANCH   2   3
ENDBRANCH   1   2
BRANCH   1   8
ATOM      8  C3  MOL C   1      31.263  43.564  30.147 -0.37 -0.00    +0.000 C 
BRANCH   8   9
ATOM      9  C5  MOL C   1      32.803  43.001  29.983 -0.63 -0.00    +0.000 C 
BRANCH   9  10
ATOM     10  C7  MOL C   1      33.001  41.775  29.016 -0.54 +0.00    -0.000 C 
BRANCH  10  11
ATOM     11  C9  MOL C   1      32.550  40.389  29.594 -0.50 +0.00    -0.005 C 
ATOM     12  C11 MOL C   1      33.391  40.137  30.894 -0.49 -0.00    +0.005 C 
ENDBRANCH  10  11
ENDBRANCH   9  10
ENDBRANCH   8   9
ENDBRANCH   1   8
TORSDOF 9
TER
ENDMDL
MODEL       29
USER    Run = 29
USER    DPF = lac2.dpf
USER  
USER    Estimated Free Energy of Binding    =   -3.88 kcal/mol  [=(1)+(2)+(3)-(4)]
USER    Estimated Inhibition Constant, Ki   =    1.44 mM (millimolar)  [Temperature = 298.15 K]
USER    
USER    (1) Final Intermolecular Energy     =   -6.31 kcal/mol
USER        vdW + Hbond + desolv Energy     =   -6.31 kcal/mol
USER        Electrostatic Energy            =   +0.00 kcal/mol
USER    (2) Final Total Internal Energy     =   -0.54 kcal/mol
USER    (3) Torsional Free Energy           =   +2.68 kcal/mol
USER    (4) Unbound System's Energy         =   -0.29 kcal/mol
USER    
USER    
USER    NEWDPF move PE_ligand.pdbqt
USER    NEWDPF about 3.037000 5.209000 3.149000
USER    NEWDPF tran0 30.464674 40.182331 27.874056
USER    NEWDPF quaternion0 -0.158201 0.671493 0.044468 0.722559
USER    NEWDPF axisangle0 -0.228843 0.971336 0.064324 87.467680
USER    NEWDPF quat0 -0.228843 0.971336 0.064324 87.467680
USER    NEWDPF dihe0 159.79 73.08 -153.12 -74.56 -9.65 -96.41 -46.24 63.82 14.08 
USER  keepresnum = 1 
USER  
REMARK  9 active torsions:
REMARK  status: ('A' for Active; 'I' for Inactive)
REMARK    1  A    between atoms: C1_1  and  C2_2 
REMARK    2  A    between atoms: C1_1  and  C3_3 
REMARK    3  A    between atoms: C2_2  and  C4_4 
REMARK    4  A    between atoms: C3_3  and  C5_5 
REMARK    5  A    between atoms: C4_4  and  C6_6 
REMARK    6  A    between atoms: C5_5  and  C7_7 
REMARK    7  A    between atoms: C6_6  and  C8_8 
REMARK    8  A    between atoms: C7_7  and  C9_9 
REMARK    9  A    between atoms: C8_8  and  C10_10 
USER                              x       y       z     vdW  Elec       q    Type
USER                           _______ _______ _______ _____ _____    ______ ____
ROOT
ATOM      1  C1  MOL C   1      29.577  40.914  28.059 -0.44 -0.00    +0.000 C 
ENDROOT
BRANCH   1   2
ATOM      2  C2  MOL C   1      30.179  39.927  29.069 -0.41 -0.00    +0.000 C 
BRANCH   2   3
ATOM      3  C4  MOL C   1      31.710  39.838  28.760 -0.46 -0.00    +0.000 C 
BRANCH   3   4
ATOM      4  C6  MOL C   1      32.626  39.819  30.094 -0.48 -0.00    +0.000 C 
BRANCH   4   5
ATOM      5  C8  MOL C   1      33.255  41.131  30.504 -0.50 +0.00    -0.000 C 
BRANCH   5   6
ATOM      6  C10 MOL C   1      32.535  42.248  29.757 -0.58 +0.00    -0.005 C 
ATOM      7  C12 MOL C   1      33.358  43.423  29.322 -0.70 -0.00    +0.005 C 
ENDBRANCH   5   6
ENDBRANCH   4   5
ENDBRANCH   3   4
ENDBRANCH   2   3
ENDBRANCH   1   2
BRANCH   1   8
ATOM      8  C3  MOL C   1      28.994  40.005  26.904 -0.30 -0.00    +0.000 C 
BRANCH   8   9
ATOM      9  C5  MOL C   1      30.160  39.799  25.758 -0.36 -0.00    +0.000 C 
BRANCH   9  10
ATOM     10  C7  MOL C   1      29.660  39.454  24.306 -0.55 +0.00    -0.000 C 
BRANCH  10  11
ATOM     11  C9  MOL C   1      30.066  40.486  23.197 -0.74 +0.00    -0.005 C 
ATOM     12  C11 MOL C   1      28.880  41.504  23.061 -0.79 -0.00    +0.005 C 
ENDBRANCH  10  11
ENDBRANCH   9  10
ENDBRANCH   8   9
ENDBRANCH   1   8
TORSDOF 9
TER
ENDMDL
MODEL       30
USER    Run = 30
USER    DPF = lac2.dpf
USER  
USER    Estimated Free Energy of Binding    =   -3.49 kcal/mol  [=(1)+(2)+(3)-(4)]
USER    Estimated Inhibition Constant, Ki   =    2.78 mM (millimolar)  [Temperature = 298.15 K]
USER    
USER    (1) Final Intermolecular Energy     =   -5.77 kcal/mol
USER        vdW + Hbond + desolv Energy     =   -5.77 kcal/mol
USER        Electrostatic Energy            =   +0.00 kcal/mol
USER    (2) Final Total Internal Energy     =   -0.69 kcal/mol
USER    (3) Torsional Free Energy           =   +2.68 kcal/mol
USER    (4) Unbound System's Energy         =   -0.29 kcal/mol
USER    
USER    
USER    NEWDPF move PE_ligand.pdbqt
USER    NEWDPF about 3.037000 5.209000 3.149000
USER    NEWDPF tran0 29.808019 39.348204 28.926339
USER    NEWDPF quaternion0 -0.689007 0.276003 0.010371 -0.670062
USER    NEWDPF axisangle0 -0.928200 0.371820 0.013972 -95.856264
USER    NEWDPF quat0 -0.928200 0.371820 0.013972 -95.856264
USER    NEWDPF dihe0 125.73 -130.54 -45.37 80.20 125.60 -70.62 69.74 16.71 -70.35 
USER  keepresnum = 1 
USER  
REMARK  9 active torsions:
REMARK  status: ('A' for Active; 'I' for Inactive)
REMARK    1  A    between atoms: C1_1  and  C2_2 
REMARK    2  A    between atoms: C1_1  and  C3_3 
REMARK    3  A    between atoms: C2_2  and  C4_4 
REMARK    4  A    between atoms: C3_3  and  C5_5 
REMARK    5  A    between atoms: C4_4  and  C6_6 
REMARK    6  A    between atoms: C5_5  and  C7_7 
REMARK    7  A    between atoms: C6_6  and  C8_8 
REMARK    8  A    between atoms: C7_7  and  C9_9 
REMARK    9  A    between atoms: C8_8  and  C10_10 
USER                              x       y       z     vdW  Elec       q    Type
USER                           _______ _______ _______ _____ _____    ______ ____
ROOT
ATOM      1  C1  MOL C   1      29.640  40.137  28.086 -0.45 -0.00    +0.000 C 
ENDROOT
BRANCH   1   2
ATOM      2  C2  MOL C   1      30.893  39.275  28.298 -0.53 -0.00    +0.000 C 
BRANCH   2   3
ATOM      3  C4  MOL C   1      31.308  39.441  29.797 -0.43 -0.00    +0.000 C 
BRANCH   3   4
ATOM      4  C6  MOL C   1      32.615  40.377  29.992 -0.50 -0.00    +0.000 C 
BRANCH   4   5
ATOM      5  C8  MOL C   1      32.753  41.554  29.054 -0.51 +0.00    -0.000 C 
BRANCH   5   6
ATOM      6  C10 MOL C   1      32.878  42.815  29.902 -0.63 +0.00    -0.005 C 
ATOM      7  C12 MOL C   1      32.996  44.121  29.175 -0.65 -0.00    +0.005 C 
ENDBRANCH   5   6
ENDBRANCH   4   5
ENDBRANCH   3   4
ENDBRANCH   2   3
ENDBRANCH   1   2
BRANCH   1   8
ATOM      8  C3  MOL C   1      29.545  41.039  29.381 -0.35 -0.00    +0.000 C 
BRANCH   8   9
ATOM      9  C5  MOL C   1      27.970  41.112  29.857 -0.37 -0.00    +0.000 C 
BRANCH   9  10
ATOM     10  C7  MOL C   1      27.390  42.548  30.140 -0.41 +0.00    -0.000 C 
BRANCH  10  11
ATOM     11  C9  MOL C   1      27.648  43.099  31.586 -0.49 +0.00    -0.005 C 
ATOM     12  C11 MOL C   1      29.201  43.230  31.758 -0.44 -0.00    +0.005 C 
ENDBRANCH  10  11
ENDBRANCH   9  10
ENDBRANCH   8   9
ENDBRANCH   1   8
TORSDOF 9
TER
ENDMDL
MODEL       31
USER    Run = 31
USER    DPF = lac2.dpf
USER  
USER    Estimated Free Energy of Binding    =   -3.91 kcal/mol  [=(1)+(2)+(3)-(4)]
USER    Estimated Inhibition Constant, Ki   =    1.36 mM (millimolar)  [Temperature = 298.15 K]
USER    
USER    (1) Final Intermolecular Energy     =   -6.30 kcal/mol
USER        vdW + Hbond + desolv Energy     =   -6.30 kcal/mol
USER        Electrostatic Energy            =   +0.00 kcal/mol
USER    (2) Final Total Internal Energy     =   -0.58 kcal/mol
USER    (3) Torsional Free Energy           =   +2.68 kcal/mol
USER    (4) Unbound System's Energy         =   -0.29 kcal/mol
USER    
USER    
USER    NEWDPF move PE_ligand.pdbqt
USER    NEWDPF about 3.037000 5.209000 3.149000
USER    NEWDPF tran0 31.678394 39.762641 28.179150
USER    NEWDPF quaternion0 0.083327 -0.497970 -0.063763 -0.860823
USER    NEWDPF axisangle0 0.163738 -0.978515 -0.125295 -61.181750
USER    NEWDPF quat0 0.163738 -0.978515 -0.125295 -61.181750
USER    NEWDPF dihe0 -172.37 52.53 -173.38 7.00 -155.52 160.25 137.49 -2.31 106.64 
USER  keepresnum = 1 
USER  
REMARK  9 active torsions:
REMARK  status: ('A' for Active; 'I' for Inactive)
REMARK    1  A    between atoms: C1_1  and  C2_2 
REMARK    2  A    between atoms: C1_1  and  C3_3 
REMARK    3  A    between atoms: C2_2  and  C4_4 
REMARK    4  A    between atoms: C3_3  and  C5_5 
REMARK    5  A    between atoms: C4_4  and  C6_6 
REMARK    6  A    between atoms: C5_5  and  C7_7 
REMARK    7  A    between atoms: C6_6  and  C8_8 
REMARK    8  A    between atoms: C7_7  and  C9_9 
REMARK    9  A    between atoms: C8_8  and  C10_10 
USER                              x       y       z     vdW  Elec       q    Type
USER                           _______ _______ _______ _____ _____    ______ ____
ROOT
ATOM      1  C1  MOL C   1      30.989  40.581  28.640 -0.34 -0.00    +0.000 C 
ENDROOT
BRANCH   1   2
ATOM      2  C2  MOL C   1      31.939  39.645  29.401 -0.47 -0.00    +0.000 C 
BRANCH   2   3
ATOM      3  C4  MOL C   1      32.864  40.553  30.277 -0.49 -0.00    +0.000 C 
BRANCH   3   4
ATOM      4  C6  MOL C   1      33.290  41.927  29.534 -0.60 -0.00    +0.000 C 
BRANCH   4   5
ATOM      5  C8  MOL C   1      32.787  43.214  30.146 -0.61 +0.00    -0.000 C 
BRANCH   5   6
ATOM      6  C10 MOL C   1      31.876  42.850  31.314 -0.46 +0.00    -0.005 C 
ATOM      7  C12 MOL C   1      30.436  43.254  31.211 -0.42 -0.00    +0.005 C 
ENDBRANCH   5   6
ENDBRANCH   4   5
ENDBRANCH   3   4
ENDBRANCH   2   3
ENDBRANCH   1   2
BRANCH   1   8
ATOM      8  C3  MOL C   1      29.926  39.620  27.972 -0.47 -0.00    +0.000 C 
BRANCH   8   9
ATOM      9  C5  MOL C   1      29.255  40.395  26.682 -0.42 -0.00    +0.000 C 
BRANCH   9  10
ATOM     10  C7  MOL C   1      29.807  39.998  25.263 -0.56 +0.00    -0.000 C 
BRANCH  10  11
ATOM     11  C9  MOL C   1      29.570  41.059  24.133 -0.74 +0.00    -0.005 C 
ATOM     12  C11 MOL C   1      28.580  40.417  23.099 -0.72 -0.00    +0.005 C 
ENDBRANCH  10  11
ENDBRANCH   9  10
ENDBRANCH   8   9
ENDBRANCH   1   8
TORSDOF 9
TER
ENDMDL
MODEL       32
USER    Run = 32
USER    DPF = lac2.dpf
USER  
USER    Estimated Free Energy of Binding    =   -3.72 kcal/mol  [=(1)+(2)+(3)-(4)]
USER    Estimated Inhibition Constant, Ki   =    1.87 mM (millimolar)  [Temperature = 298.15 K]
USER    
USER    (1) Final Intermolecular Energy     =   -5.81 kcal/mol
USER        vdW + Hbond + desolv Energy     =   -5.81 kcal/mol
USER        Electrostatic Energy            =   +0.00 kcal/mol
USER    (2) Final Total Internal Energy     =   -0.89 kcal/mol
USER    (3) Torsional Free Energy           =   +2.68 kcal/mol
USER    (4) Unbound System's Energy         =   -0.29 kcal/mol
USER    
USER    
USER    NEWDPF move PE_ligand.pdbqt
USER    NEWDPF about 3.037000 5.209000 3.149000
USER    NEWDPF tran0 29.755669 39.729734 28.484676
USER    NEWDPF quaternion0 0.784079 -0.307628 -0.111993 0.527298
USER    NEWDPF axisangle0 0.922792 -0.362052 -0.131806 116.353891
USER    NEWDPF quat0 0.922792 -0.362052 -0.131806 116.353891
USER    NEWDPF dihe0 -174.60 -70.89 90.41 96.52 -162.57 -120.34 54.67 17.03 -36.91 
USER  keepresnum = 1 
USER  
REMARK  9 active torsions:
REMARK  status: ('A' for Active; 'I' for Inactive)
REMARK    1  A    between atoms: C1_1  and  C2_2 
REMARK    2  A    between atoms: C1_1  and  C3_3 
REMARK    3  A    between atoms: C2_2  and  C4_4 
REMARK    4  A    between atoms: C3_3  and  C5_5 
REMARK    5  A    between atoms: C4_4  and  C6_6 
REMARK    6  A    between atoms: C5_5  and  C7_7 
REMARK    7  A    between atoms: C6_6  and  C8_8 
REMARK    8  A    between atoms: C7_7  and  C9_9 
REMARK    9  A    between atoms: C8_8  and  C10_10 
USER                              x       y       z     vdW  Elec       q    Type
USER                           _______ _______ _______ _____ _____    ______ ____
ROOT
ATOM      1  C1  MOL C   1      29.256  40.226  27.557 -0.46 -0.00    +0.000 C 
ENDROOT
BRANCH   1   2
ATOM      2  C2  MOL C   1      30.658  39.603  27.621 -0.51 -0.00    +0.000 C 
BRANCH   2   3
ATOM      3  C4  MOL C   1      31.033  39.489  29.135 -0.47 -0.00    +0.000 C 
BRANCH   3   4
ATOM      4  C6  MOL C   1      32.378  40.305  29.518 -0.50 -0.00    +0.000 C 
BRANCH   4   5
ATOM      5  C8  MOL C   1      32.196  41.568  30.330 -0.46 +0.00    -0.000 C 
BRANCH   5   6
ATOM      6  C10 MOL C   1      32.282  42.753  29.374 -0.59 +0.00    -0.005 C 
ATOM      7  C12 MOL C   1      33.380  43.747  29.611 -0.70 -0.00    +0.005 C 
ENDBRANCH   5   6
ENDBRANCH   4   5
ENDBRANCH   3   4
ENDBRANCH   2   3
ENDBRANCH   1   2
BRANCH   1   8
ATOM      8  C3  MOL C   1      29.307  41.440  28.567 -0.44 -0.00    +0.000 C 
BRANCH   8   9
ATOM      9  C5  MOL C   1      27.904  41.465  29.430 -0.41 -0.00    +0.000 C 
BRANCH   9  10
ATOM     10  C7  MOL C   1      27.758  42.613  30.497 -0.43 +0.00    -0.000 C 
BRANCH  10  11
ATOM     11  C9  MOL C   1      28.705  42.491  31.742 -0.36 +0.00    -0.005 C 
ATOM     12  C11 MOL C   1      29.552  43.810  31.805 -0.48 -0.00    +0.005 C 
ENDBRANCH  10  11
ENDBRANCH   9  10
ENDBRANCH   8   9
ENDBRANCH   1   8
TORSDOF 9
TER
ENDMDL
MODEL       33
USER    Run = 33
USER    DPF = lac2.dpf
USER  
USER    Estimated Free Energy of Binding    =   -3.59 kcal/mol  [=(1)+(2)+(3)-(4)]
USER    Estimated Inhibition Constant, Ki   =    2.34 mM (millimolar)  [Temperature = 298.15 K]
USER    
USER    (1) Final Intermolecular Energy     =   -5.99 kcal/mol
USER        vdW + Hbond + desolv Energy     =   -6.00 kcal/mol
USER        Electrostatic Energy            =   +0.00 kcal/mol
USER    (2) Final Total Internal Energy     =   -0.56 kcal/mol
USER    (3) Torsional Free Energy           =   +2.68 kcal/mol
USER    (4) Unbound System's Energy         =   -0.29 kcal/mol
USER    
USER    
USER    NEWDPF move PE_ligand.pdbqt
USER    NEWDPF about 3.037000 5.209000 3.149000
USER    NEWDPF tran0 30.849684 39.894173 26.919643
USER    NEWDPF quaternion0 -0.333026 0.571229 0.184126 0.727248
USER    NEWDPF axisangle0 -0.485195 0.832240 0.268259 86.687716
USER    NEWDPF quat0 -0.485195 0.832240 0.268259 86.687716
USER    NEWDPF dihe0 67.74 127.94 -134.16 -79.74 -16.02 -170.44 161.63 31.92 131.52 
USER  keepresnum = 1 
USER  
REMARK  9 active torsions:
REMARK  status: ('A' for Active; 'I' for Inactive)
REMARK    1  A    between atoms: C1_1  and  C2_2 
REMARK    2  A    between atoms: C1_1  and  C3_3 
REMARK    3  A    between atoms: C2_2  and  C4_4 
REMARK    4  A    between atoms: C3_3  and  C5_5 
REMARK    5  A    between atoms: C4_4  and  C6_6 
REMARK    6  A    between atoms: C5_5  and  C7_7 
REMARK    7  A    between atoms: C6_6  and  C8_8 
REMARK    8  A    between atoms: C7_7  and  C9_9 
REMARK    9  A    between atoms: C8_8  and  C10_10 
USER                              x       y       z     vdW  Elec       q    Type
USER                           _______ _______ _______ _____ _____    ______ ____
ROOT
ATOM      1  C1  MOL C   1      29.997  40.380  27.547 -0.31 -0.00    +0.000 C 
ENDROOT
BRANCH   1   2
ATOM      2  C2  MOL C   1      30.801  39.123  27.909 -0.55 -0.00    +0.000 C 
BRANCH   2   3
ATOM      3  C4  MOL C   1      30.842  39.045  29.471 -0.45 -0.00    +0.000 C 
BRANCH   3   4
ATOM      4  C6  MOL C   1      30.376  40.421  30.186 -0.30 -0.00    +0.000 C 
BRANCH   4   5
ATOM      5  C8  MOL C   1      31.466  41.271  30.797 -0.34 +0.00    -0.000 C 
BRANCH   5   6
ATOM      6  C10 MOL C   1      32.705  41.145  29.916 -0.53 +0.00    -0.005 C 
ATOM      7  C12 MOL C   1      33.285  42.412  29.364 -0.65 -0.00    +0.005 C 
ENDBRANCH   5   6
ENDBRANCH   4   5
ENDBRANCH   3   4
ENDBRANCH   2   3
ENDBRANCH   1   2
BRANCH   1   8
ATOM      8  C3  MOL C   1      29.227  39.999  26.220 -0.37 -0.00    +0.000 C 
BRANCH   8   9
ATOM      9  C5  MOL C   1      29.626  41.087  25.050 -0.48 -0.00    +0.000 C 
BRANCH   9  10
ATOM     10  C7  MOL C   1      30.084  40.491  23.666 -0.73 +0.00    -0.000 C 
BRANCH  10  11
ATOM     11  C9  MOL C   1      29.130  40.795  22.459 -0.71 +0.00    -0.005 C 
ATOM     12  C11 MOL C   1      27.660  40.698  22.999 -0.57 -0.00    +0.005 C 
ENDBRANCH  10  11
ENDBRANCH   9  10
ENDBRANCH   8   9
ENDBRANCH   1   8
TORSDOF 9
TER
ENDMDL
MODEL       34
USER    Run = 34
USER    DPF = lac2.dpf
USER  
USER    Estimated Free Energy of Binding    =   -4.33 kcal/mol  [=(1)+(2)+(3)-(4)]
USER    Estimated Inhibition Constant, Ki   =  664.89 uM (micromolar)  [Temperature = 298.15 K]
USER    
USER    (1) Final Intermolecular Energy     =   -6.85 kcal/mol
USER        vdW + Hbond + desolv Energy     =   -6.86 kcal/mol
USER        Electrostatic Energy            =   +0.00 kcal/mol
USER    (2) Final Total Internal Energy     =   -0.45 kcal/mol
USER    (3) Torsional Free Energy           =   +2.68 kcal/mol
USER    (4) Unbound System's Energy         =   -0.29 kcal/mol
USER    
USER    
USER    NEWDPF move PE_ligand.pdbqt
USER    NEWDPF about 3.037000 5.209000 3.149000
USER    NEWDPF tran0 30.434857 40.733947 26.908682
USER    NEWDPF quaternion0 -0.353418 -0.204830 0.904002 0.126182
USER    NEWDPF axisangle0 -0.356265 -0.206480 0.911285 165.501979
USER    NEWDPF quat0 -0.356265 -0.206480 0.911285 165.501979
USER    NEWDPF dihe0 89.71 21.04 174.83 -137.63 -8.45 155.41 37.95 -10.13 81.10 
USER  keepresnum = 1 
USER  
REMARK  9 active torsions:
REMARK  status: ('A' for Active; 'I' for Inactive)
REMARK    1  A    between atoms: C1_1  and  C2_2 
REMARK    2  A    between atoms: C1_1  and  C3_3 
REMARK    3  A    between atoms: C2_2  and  C4_4 
REMARK    4  A    between atoms: C3_3  and  C5_5 
REMARK    5  A    between atoms: C4_4  and  C6_6 
REMARK    6  A    between atoms: C5_5  and  C7_7 
REMARK    7  A    between atoms: C6_6  and  C8_8 
REMARK    8  A    between atoms: C7_7  and  C9_9 
REMARK    9  A    between atoms: C8_8  and  C10_10 
USER                              x       y       z     vdW  Elec       q    Type
USER                           _______ _______ _______ _____ _____    ______ ____
ROOT
ATOM      1  C1  MOL C   1      30.394  39.619  27.243 -0.52 -0.00    +0.000 C 
ENDROOT
BRANCH   1   2
ATOM      2  C2  MOL C   1      29.412  40.331  26.303 -0.42 -0.00    +0.000 C 
BRANCH   2   3
ATOM      3  C4  MOL C   1      29.811  39.932  24.844 -0.61 -0.00    +0.000 C 
BRANCH   3   4
ATOM      4  C6  MOL C   1      29.774  41.179  23.813 -0.77 -0.00    +0.000 C 
BRANCH   4   5
ATOM      5  C8  MOL C   1      28.530  41.324  22.966 -0.73 +0.00    -0.000 C 
BRANCH   5   6
ATOM      6  C10 MOL C   1      27.770  40.003  23.025 -0.56 +0.00    -0.005 C 
ATOM      7  C12 MOL C   1      26.272  40.073  22.999 -0.62 -0.00    +0.005 C 
ENDBRANCH   5   6
ENDBRANCH   4   5
ENDBRANCH   3   4
ENDBRANCH   2   3
ENDBRANCH   1   2
BRANCH   1   8
ATOM      8  C3  MOL C   1      30.240  40.364  28.629 -0.43 -0.00    +0.000 C 
BRANCH   8   9
ATOM      9  C5  MOL C   1      31.515  39.957  29.589 -0.45 -0.00    +0.000 C 
BRANCH   9  10
ATOM     10  C7  MOL C   1      32.731  40.956  29.598 -0.52 +0.00    -0.000 C 
BRANCH  10  11
ATOM     11  C9  MOL C   1      32.381  42.431  30.001 -0.56 +0.00    -0.005 C 
ATOM     12  C11 MOL C   1      33.316  43.371  29.162 -0.67 -0.00    +0.005 C 
ENDBRANCH  10  11
ENDBRANCH   9  10
ENDBRANCH   8   9
ENDBRANCH   1   8
TORSDOF 9
TER
ENDMDL
MODEL       35
USER    Run = 35
USER    DPF = lac2.dpf
USER  
USER    Estimated Free Energy of Binding    =   -3.85 kcal/mol  [=(1)+(2)+(3)-(4)]
USER    Estimated Inhibition Constant, Ki   =    1.51 mM (millimolar)  [Temperature = 298.15 K]
USER    
USER    (1) Final Intermolecular Energy     =   -6.26 kcal/mol
USER        vdW + Hbond + desolv Energy     =   -6.26 kcal/mol
USER        Electrostatic Energy            =   +0.00 kcal/mol
USER    (2) Final Total Internal Energy     =   -0.56 kcal/mol
USER    (3) Torsional Free Energy           =   +2.68 kcal/mol
USER    (4) Unbound System's Energy         =   -0.29 kcal/mol
USER    
USER    
USER    NEWDPF move PE_ligand.pdbqt
USER    NEWDPF about 3.037000 5.209000 3.149000
USER    NEWDPF tran0 29.072470 40.964552 26.405217
USER    NEWDPF quaternion0 0.498006 0.001152 0.703431 -0.507124
USER    NEWDPF axisangle0 0.577818 0.001336 0.816165 -119.055151
USER    NEWDPF quat0 0.577818 0.001336 0.816165 -119.055151
USER    NEWDPF dihe0 51.45 166.02 -169.13 27.75 -161.74 147.71 -141.40 53.73 -179.55 
USER  keepresnum = 1 
USER  
REMARK  9 active torsions:
REMARK  status: ('A' for Active; 'I' for Inactive)
REMARK    1  A    between atoms: C1_1  and  C2_2 
REMARK    2  A    between atoms: C1_1  and  C3_3 
REMARK    3  A    between atoms: C2_2  and  C4_4 
REMARK    4  A    between atoms: C3_3  and  C5_5 
REMARK    5  A    between atoms: C4_4  and  C6_6 
REMARK    6  A    between atoms: C5_5  and  C7_7 
REMARK    7  A    between atoms: C6_6  and  C8_8 
REMARK    8  A    between atoms: C7_7  and  C9_9 
REMARK    9  A    between atoms: C8_8  and  C10_10 
USER                              x       y       z     vdW  Elec       q    Type
USER                           _______ _______ _______ _____ _____    ______ ____
ROOT
ATOM      1  C1  MOL C   1      28.979  40.079  27.156 -0.34 -0.00    +0.000 C 
ENDROOT
BRANCH   1   2
ATOM      2  C2  MOL C   1      29.250  41.550  27.501 -0.44 -0.00    +0.000 C 
BRANCH   2   3
ATOM      3  C4  MOL C   1      29.876  41.571  28.934 -0.39 -0.00    +0.000 C 
BRANCH   3   4
ATOM      4  C6  MOL C   1      30.994  40.421  29.154 -0.43 -0.00    +0.000 C 
BRANCH   4   5
ATOM      5  C8  MOL C   1      32.431  40.882  29.247 -0.51 +0.00    -0.000 C 
BRANCH   5   6
ATOM      6  C10 MOL C   1      32.446  42.400  29.103 -0.51 +0.00    -0.005 C 
ATOM      7  C12 MOL C   1      32.720  43.203  30.339 -0.54 -0.00    +0.005 C 
ENDBRANCH   5   6
ENDBRANCH   4   5
ENDBRANCH   3   4
ENDBRANCH   2   3
ENDBRANCH   1   2
BRANCH   1   8
ATOM      8  C3  MOL C   1      30.229  39.629  26.299 -0.43 -0.00    +0.000 C 
BRANCH   8   9
ATOM      9  C5  MOL C   1      29.804  39.633  24.707 -0.60 -0.00    +0.000 C 
BRANCH   9  10
ATOM     10  C7  MOL C   1      29.993  40.993  23.936 -0.72 +0.00    -0.000 C 
BRANCH  10  11
ATOM     11  C9  MOL C   1      28.822  41.379  22.967 -0.78 +0.00    -0.005 C 
ATOM     12  C11 MOL C   1      27.759  40.228  23.049 -0.58 -0.00    +0.005 C 
ENDBRANCH  10  11
ENDBRANCH   9  10
ENDBRANCH   8   9
ENDBRANCH   1   8
TORSDOF 9
TER
ENDMDL
MODEL       36
USER    Run = 36
USER    DPF = lac2.dpf
USER  
USER    Estimated Free Energy of Binding    =   -3.45 kcal/mol  [=(1)+(2)+(3)-(4)]
USER    Estimated Inhibition Constant, Ki   =    2.94 mM (millimolar)  [Temperature = 298.15 K]
USER    
USER    (1) Final Intermolecular Energy     =   -5.54 kcal/mol
USER        vdW + Hbond + desolv Energy     =   -5.53 kcal/mol
USER        Electrostatic Energy            =   -0.00 kcal/mol
USER    (2) Final Total Internal Energy     =   -0.89 kcal/mol
USER    (3) Torsional Free Energy           =   +2.68 kcal/mol
USER    (4) Unbound System's Energy         =   -0.29 kcal/mol
USER    
USER    
USER    NEWDPF move PE_ligand.pdbqt
USER    NEWDPF about 3.037000 5.209000 3.149000
USER    NEWDPF tran0 28.599611 40.877999 29.432514
USER    NEWDPF quaternion0 0.038385 -0.971836 0.152976 0.175097
USER    NEWDPF axisangle0 0.038988 -0.987086 0.155376 159.831395
USER    NEWDPF quat0 0.038988 -0.987086 0.155376 159.831395
USER    NEWDPF dihe0 -56.45 140.61 21.47 -82.31 -149.40 -62.38 166.62 31.22 30.15 
USER  keepresnum = 1 
USER  
REMARK  9 active torsions:
REMARK  status: ('A' for Active; 'I' for Inactive)
REMARK    1  A    between atoms: C1_1  and  C2_2 
REMARK    2  A    between atoms: C1_1  and  C3_3 
REMARK    3  A    between atoms: C2_2  and  C4_4 
REMARK    4  A    between atoms: C3_3  and  C5_5 
REMARK    5  A    between atoms: C4_4  and  C6_6 
REMARK    6  A    between atoms: C5_5  and  C7_7 
REMARK    7  A    between atoms: C6_6  and  C8_8 
REMARK    8  A    between atoms: C7_7  and  C9_9 
REMARK    9  A    between atoms: C8_8  and  C10_10 
USER                              x       y       z     vdW  Elec       q    Type
USER                           _______ _______ _______ _____ _____    ______ ____
ROOT
ATOM      1  C1  MOL C   1      28.950  41.510  28.519 -0.45 -0.00    +0.000 C 
ENDROOT
BRANCH   1   2
ATOM      2  C2  MOL C   1      27.620  40.755  28.657 -0.34 -0.00    +0.000 C 
BRANCH   2   3
ATOM      3  C4  MOL C   1      27.011  41.160  30.039 -0.39 -0.00    +0.000 C 
BRANCH   3   4
ATOM      4  C6  MOL C   1      28.031  42.023  30.953 -0.37 -0.00    +0.000 C 
BRANCH   4   5
ATOM      5  C8  MOL C   1      27.567  43.399  31.374 -0.52 +0.00    -0.000 C 
BRANCH   5   6
ATOM      6  C10 MOL C   1      28.760  44.127  31.984 -0.46 +0.00    -0.005 C 
ATOM      7  C12 MOL C   1      30.057  43.377  32.057 -0.44 -0.00    +0.005 C 
ENDBRANCH   5   6
ENDBRANCH   4   5
ENDBRANCH   3   4
ENDBRANCH   2   3
ENDBRANCH   1   2
BRANCH   1   8
ATOM      8  C3  MOL C   1      30.060  40.385  28.562 -0.43 -0.00    +0.000 C 
BRANCH   8   9
ATOM      9  C5  MOL C   1      31.113  40.731  29.780 -0.38 -0.00    +0.000 C 
BRANCH   9  10
ATOM     10  C7  MOL C   1      32.624  40.899  29.373 -0.54 +0.00    -0.000 C 
BRANCH  10  11
ATOM     11  C9  MOL C   1      33.197  42.352  29.513 -0.64 +0.00    -0.005 C 
ATOM     12  C11 MOL C   1      31.984  43.338  29.380 -0.57 -0.00    +0.005 C 
ENDBRANCH  10  11
ENDBRANCH   9  10
ENDBRANCH   8   9
ENDBRANCH   1   8
TORSDOF 9
TER
ENDMDL
MODEL       37
USER    Run = 37
USER    DPF = lac2.dpf
USER  
USER    Estimated Free Energy of Binding    =   -3.50 kcal/mol  [=(1)+(2)+(3)-(4)]
USER    Estimated Inhibition Constant, Ki   =    2.72 mM (millimolar)  [Temperature = 298.15 K]
USER    
USER    (1) Final Intermolecular Energy     =   -5.61 kcal/mol
USER        vdW + Hbond + desolv Energy     =   -5.61 kcal/mol
USER        Electrostatic Energy            =   +0.00 kcal/mol
USER    (2) Final Total Internal Energy     =   -0.86 kcal/mol
USER    (3) Torsional Free Energy           =   +2.68 kcal/mol
USER    (4) Unbound System's Energy         =   -0.29 kcal/mol
USER    
USER    
USER    NEWDPF move PE_ligand.pdbqt
USER    NEWDPF about 3.037000 5.209000 3.149000
USER    NEWDPF tran0 32.921308 42.828017 30.505040
USER    NEWDPF quaternion0 -0.482341 -0.754167 0.441956 -0.057045
USER    NEWDPF axisangle0 -0.483127 -0.755397 0.442677 -173.459592
USER    NEWDPF quat0 -0.483127 -0.755397 0.442677 -173.459592
USER    NEWDPF dihe0 76.66 -112.91 -146.67 -125.90 -129.97 -76.23 -46.97 -86.21 -95.30 
USER  keepresnum = 1 
USER  
REMARK  9 active torsions:
REMARK  status: ('A' for Active; 'I' for Inactive)
REMARK    1  A    between atoms: C1_1  and  C2_2 
REMARK    2  A    between atoms: C1_1  and  C3_3 
REMARK    3  A    between atoms: C2_2  and  C4_4 
REMARK    4  A    between atoms: C3_3  and  C5_5 
REMARK    5  A    between atoms: C4_4  and  C6_6 
REMARK    6  A    between atoms: C5_5  and  C7_7 
REMARK    7  A    between atoms: C6_6  and  C8_8 
REMARK    8  A    between atoms: C7_7  and  C9_9 
REMARK    9  A    between atoms: C8_8  and  C10_10 
USER                              x       y       z     vdW  Elec       q    Type
USER                           _______ _______ _______ _____ _____    ______ ____
ROOT
ATOM      1  C1  MOL C   1      33.184  42.405  29.452 -0.66 -0.00    +0.000 C 
ENDROOT
BRANCH   1   2
ATOM      2  C2  MOL C   1      32.197  43.539  29.766 -0.58 -0.00    +0.000 C 
BRANCH   2   3
ATOM      3  C4  MOL C   1      30.905  42.868  30.338 -0.41 -0.00    +0.000 C 
BRANCH   3   4
ATOM      4  C6  MOL C   1      30.292  43.657  31.612 -0.44 -0.00    +0.000 C 
BRANCH   4   5
ATOM      5  C8  MOL C   1      28.786  43.762  31.685 -0.45 +0.00    -0.000 C 
BRANCH   5   6
ATOM      6  C10 MOL C   1      28.198  42.632  30.846 -0.40 +0.00    -0.005 C 
ATOM      7  C12 MOL C   1      27.104  41.815  31.466 -0.39 -0.00    +0.005 C 
ENDBRANCH   5   6
ENDBRANCH   4   5
ENDBRANCH   3   4
ENDBRANCH   2   3
ENDBRANCH   1   2
BRANCH   1   8
ATOM      8  C3  MOL C   1      32.570  41.129  30.154 -0.50 -0.00    +0.000 C 
BRANCH   8   9
ATOM      9  C5  MOL C   1      32.246  39.999  28.999 -0.46 -0.00    +0.000 C 
BRANCH   9  10
ATOM     10  C7  MOL C   1      30.858  39.264  29.109 -0.48 +0.00    -0.000 C 
BRANCH  10  11
ATOM     11  C9  MOL C   1      29.603  40.160  28.826 -0.40 +0.00    -0.005 C 
ATOM     12  C11 MOL C   1      29.455  40.264  27.268 -0.46 -0.00    +0.005 C 
ENDBRANCH  10  11
ENDBRANCH   9  10
ENDBRANCH   8   9
ENDBRANCH   1   8
TORSDOF 9
TER
ENDMDL
MODEL       38
USER    Run = 38
USER    DPF = lac2.dpf
USER  
USER    Estimated Free Energy of Binding    =   -4.18 kcal/mol  [=(1)+(2)+(3)-(4)]
USER    Estimated Inhibition Constant, Ki   =  869.47 uM (micromolar)  [Temperature = 298.15 K]
USER    
USER    (1) Final Intermolecular Energy     =   -6.72 kcal/mol
USER        vdW + Hbond + desolv Energy     =   -6.72 kcal/mol
USER        Electrostatic Energy            =   +0.00 kcal/mol
USER    (2) Final Total Internal Energy     =   -0.43 kcal/mol
USER    (3) Torsional Free Energy           =   +2.68 kcal/mol
USER    (4) Unbound System's Energy         =   -0.29 kcal/mol
USER    
USER    
USER    NEWDPF move PE_ligand.pdbqt
USER    NEWDPF about 3.037000 5.209000 3.149000
USER    NEWDPF tran0 34.672185 39.433272 30.636313
USER    NEWDPF quaternion0 -0.151388 0.219675 0.575597 0.772990
USER    NEWDPF axisangle0 -0.238624 0.346262 0.907282 78.753779
USER    NEWDPF quat0 -0.238624 0.346262 0.907282 78.753779
USER    NEWDPF dihe0 136.92 -15.26 -148.53 -164.45 -177.92 165.11 -90.32 55.14 96.15 
USER  keepresnum = 1 
USER  
REMARK  9 active torsions:
REMARK  status: ('A' for Active; 'I' for Inactive)
REMARK    1  A    between atoms: C1_1  and  C2_2 
REMARK    2  A    between atoms: C1_1  and  C3_3 
REMARK    3  A    between atoms: C2_2  and  C4_4 
REMARK    4  A    between atoms: C3_3  and  C5_5 
REMARK    5  A    between atoms: C4_4  and  C6_6 
REMARK    6  A    between atoms: C5_5  and  C7_7 
REMARK    7  A    between atoms: C6_6  and  C8_8 
REMARK    8  A    between atoms: C7_7  and  C9_9 
REMARK    9  A    between atoms: C8_8  and  C10_10 
USER                              x       y       z     vdW  Elec       q    Type
USER                           _______ _______ _______ _____ _____    ______ ____
ROOT
ATOM      1  C1  MOL C   1      34.978  39.808  31.696 -0.53 -0.00    +0.000 C 
ENDROOT
BRANCH   1   2
ATOM      2  C2  MOL C   1      34.881  38.348  31.231 -0.41 -0.00    +0.000 C 
BRANCH   2   3
ATOM      3  C4  MOL C   1      36.327  37.755  31.296 -0.64 -0.00    +0.000 C 
BRANCH   3   4
ATOM      4  C6  MOL C   1      36.634  36.986  32.687 -0.62 -0.00    +0.000 C 
BRANCH   4   5
ATOM      5  C8  MOL C   1      36.372  35.497  32.711 -0.82 +0.00    -0.000 C 
BRANCH   5   6
ATOM      6  C10 MOL C   1      36.366  35.000  31.270 -0.68 +0.00    -0.005 C 
ATOM      7  C12 MOL C   1      35.844  33.616  31.023 -0.64 -0.00    +0.005 C 
ENDBRANCH   5   6
ENDBRANCH   4   5
ENDBRANCH   3   4
ENDBRANCH   2   3
ENDBRANCH   1   2
BRANCH   1   8
ATOM      8  C3  MOL C   1      33.503  40.366  31.584 -0.41 -0.00    +0.000 C 
BRANCH   8   9
ATOM      9  C5  MOL C   1      33.374  41.232  30.188 -0.51 -0.00    +0.000 C 
BRANCH   9  10
ATOM     10  C7  MOL C   1      32.582  40.549  29.012 -0.45 +0.00    -0.000 C 
BRANCH  10  11
ATOM     11  C9  MOL C   1      31.445  39.564  29.455 -0.46 +0.00    -0.005 C 
ATOM     12  C11 MOL C   1      30.759  39.036  28.147 -0.55 -0.00    +0.005 C 
ENDBRANCH  10  11
ENDBRANCH   9  10
ENDBRANCH   8   9
ENDBRANCH   1   8
TORSDOF 9
TER
ENDMDL
MODEL       39
USER    Run = 39
USER    DPF = lac2.dpf
USER  
USER    Estimated Free Energy of Binding    =   -3.27 kcal/mol  [=(1)+(2)+(3)-(4)]
USER    Estimated Inhibition Constant, Ki   =    4.01 mM (millimolar)  [Temperature = 298.15 K]
USER    
USER    (1) Final Intermolecular Energy     =   -5.53 kcal/mol
USER        vdW + Hbond + desolv Energy     =   -5.53 kcal/mol
USER        Electrostatic Energy            =   -0.00 kcal/mol
USER    (2) Final Total Internal Energy     =   -0.71 kcal/mol
USER    (3) Torsional Free Energy           =   +2.68 kcal/mol
USER    (4) Unbound System's Energy         =   -0.29 kcal/mol
USER    
USER    
USER    NEWDPF move PE_ligand.pdbqt
USER    NEWDPF about 3.037000 5.209000 3.149000
USER    NEWDPF tran0 30.898120 40.266170 29.507531
USER    NEWDPF quaternion0 0.369140 -0.613771 0.557017 0.420419
USER    NEWDPF axisangle0 0.406842 -0.676459 0.613908 130.277917
USER    NEWDPF quat0 0.406842 -0.676459 0.613908 130.277917
USER    NEWDPF dihe0 5.56 -122.74 -93.76 178.10 -130.59 143.31 -143.74 -12.52 1.92 
USER  keepresnum = 1 
USER  
REMARK  9 active torsions:
REMARK  status: ('A' for Active; 'I' for Inactive)
REMARK    1  A    between atoms: C1_1  and  C2_2 
REMARK    2  A    between atoms: C1_1  and  C3_3 
REMARK    3  A    between atoms: C2_2  and  C4_4 
REMARK    4  A    between atoms: C3_3  and  C5_5 
REMARK    5  A    between atoms: C4_4  and  C6_6 
REMARK    6  A    between atoms: C5_5  and  C7_7 
REMARK    7  A    between atoms: C6_6  and  C8_8 
REMARK    8  A    between atoms: C7_7  and  C9_9 
REMARK    9  A    between atoms: C8_8  and  C10_10 
USER                              x       y       z     vdW  Elec       q    Type
USER                           _______ _______ _______ _____ _____    ______ ____
ROOT
ATOM      1  C1  MOL C   1      31.656  40.177  28.627 -0.44 -0.00    +0.000 C 
ENDROOT
BRANCH   1   2
ATOM      2  C2  MOL C   1      30.811  39.045  29.229 -0.47 -0.00    +0.000 C 
BRANCH   2   3
ATOM      3  C4  MOL C   1      29.602  39.720  29.957 -0.31 -0.00    +0.000 C 
BRANCH   3   4
ATOM      4  C6  MOL C   1      28.976  40.961  29.127 -0.38 -0.00    +0.000 C 
BRANCH   4   5
ATOM      5  C8  MOL C   1      27.469  41.086  29.128 -0.40 +0.00    -0.000 C 
BRANCH   5   6
ATOM      6  C10 MOL C   1      27.046  41.630  30.488 -0.41 +0.00    -0.005 C 
ATOM      7  C12 MOL C   1      27.562  42.983  30.875 -0.48 -0.00    +0.005 C 
ENDBRANCH   5   6
ENDBRANCH   4   5
ENDBRANCH   3   4
ENDBRANCH   2   3
ENDBRANCH   1   2
BRANCH   1   8
ATOM      8  C3  MOL C   1      32.602  40.645  29.805 -0.51 -0.00    +0.000 C 
BRANCH   8   9
ATOM      9  C5  MOL C   1      33.311  42.068  29.375 -0.61 -0.00    +0.000 C 
BRANCH   9  10
ATOM     10  C7  MOL C   1      32.471  43.374  29.635 -0.64 +0.00    -0.000 C 
BRANCH  10  11
ATOM     11  C9  MOL C   1      31.206  43.186  30.543 -0.45 +0.00    -0.005 C 
ATOM     12  C11 MOL C   1      31.721  42.923  32.001 -0.42 -0.00    +0.005 C 
ENDBRANCH  10  11
ENDBRANCH   9  10
ENDBRANCH   8   9
ENDBRANCH   1   8
TORSDOF 9
TER
ENDMDL
MODEL       40
USER    Run = 40
USER    DPF = lac2.dpf
USER  
USER    Estimated Free Energy of Binding    =   -4.07 kcal/mol  [=(1)+(2)+(3)-(4)]
USER    Estimated Inhibition Constant, Ki   =    1.04 mM (millimolar)  [Temperature = 298.15 K]
USER    
USER    (1) Final Intermolecular Energy     =   -6.45 kcal/mol
USER        vdW + Hbond + desolv Energy     =   -6.45 kcal/mol
USER        Electrostatic Energy            =   +0.00 kcal/mol
USER    (2) Final Total Internal Energy     =   -0.59 kcal/mol
USER    (3) Torsional Free Energy           =   +2.68 kcal/mol
USER    (4) Unbound System's Energy         =   -0.29 kcal/mol
USER    
USER    
USER    NEWDPF move PE_ligand.pdbqt
USER    NEWDPF about 3.037000 5.209000 3.149000
USER    NEWDPF tran0 30.521698 39.680031 27.779113
USER    NEWDPF quaternion0 0.244140 -0.591248 -0.227653 -0.734163
USER    NEWDPF axisangle0 0.359573 -0.870797 -0.335290 -85.526947
USER    NEWDPF quat0 0.359573 -0.870797 -0.335290 -85.526947
USER    NEWDPF dihe0 -135.48 167.78 56.46 -58.27 -130.31 180.00 166.13 43.75 60.97 
USER  keepresnum = 1 
USER  
REMARK  9 active torsions:
REMARK  status: ('A' for Active; 'I' for Inactive)
REMARK    1  A    between atoms: C1_1  and  C2_2 
REMARK    2  A    between atoms: C1_1  and  C3_3 
REMARK    3  A    between atoms: C2_2  and  C4_4 
REMARK    4  A    between atoms: C3_3  and  C5_5 
REMARK    5  A    between atoms: C4_4  and  C6_6 
REMARK    6  A    between atoms: C5_5  and  C7_7 
REMARK    7  A    between atoms: C6_6  and  C8_8 
REMARK    8  A    between atoms: C7_7  and  C9_9 
REMARK    9  A    between atoms: C8_8  and  C10_10 
USER                              x       y       z     vdW  Elec       q    Type
USER                           _______ _______ _______ _____ _____    ______ ____
ROOT
ATOM      1  C1  MOL C   1      29.797  40.362  28.385 -0.44 -0.00    +0.000 C 
ENDROOT
BRANCH   1   2
ATOM      2  C2  MOL C   1      30.388  39.019  28.838 -0.47 -0.00    +0.000 C 
BRANCH   2   3
ATOM      3  C4  MOL C   1      31.839  39.311  29.343 -0.41 -0.00    +0.000 C 
BRANCH   3   4
ATOM      4  C6  MOL C   1      32.333  40.818  29.017 -0.49 -0.00    +0.000 C 
BRANCH   4   5
ATOM      5  C8  MOL C   1      33.135  41.516  30.091 -0.56 +0.00    -0.000 C 
BRANCH   5   6
ATOM      6  C10 MOL C   1      32.582  42.929  30.243 -0.58 +0.00    -0.005 C 
ATOM      7  C12 MOL C   1      33.019  43.949  29.235 -0.67 -0.00    +0.005 C 
ENDBRANCH   5   6
ENDBRANCH   4   5
ENDBRANCH   3   4
ENDBRANCH   2   3
ENDBRANCH   1   2
BRANCH   1   8
ATOM      8  C3  MOL C   1      28.909  40.008  27.125 -0.31 -0.00    +0.000 C 
BRANCH   8   9
ATOM      9  C5  MOL C   1      29.621  40.648  25.784 -0.41 -0.00    +0.000 C 
BRANCH   9  10
ATOM     10  C7  MOL C   1      30.027  39.629  24.655 -0.62 +0.00    -0.000 C 
BRANCH  10  11
ATOM     11  C9  MOL C   1      29.678  40.079  23.193 -0.68 +0.00    -0.005 C 
ATOM     12  C11 MOL C   1      29.020  41.500  23.294 -0.81 -0.00    +0.005 C 
ENDBRANCH  10  11
ENDBRANCH   9  10
ENDBRANCH   8   9
ENDBRANCH   1   8
TORSDOF 9
TER
ENDMDL
MODEL       41
USER    Run = 41
USER    DPF = lac2.dpf
USER  
USER    Estimated Free Energy of Binding    =   -3.89 kcal/mol  [=(1)+(2)+(3)-(4)]
USER    Estimated Inhibition Constant, Ki   =    1.40 mM (millimolar)  [Temperature = 298.15 K]
USER    
USER    (1) Final Intermolecular Energy     =   -6.36 kcal/mol
USER        vdW + Hbond + desolv Energy     =   -6.36 kcal/mol
USER        Electrostatic Energy            =   +0.00 kcal/mol
USER    (2) Final Total Internal Energy     =   -0.51 kcal/mol
USER    (3) Torsional Free Energy           =   +2.68 kcal/mol
USER    (4) Unbound System's Energy         =   -0.29 kcal/mol
USER    
USER    
USER    NEWDPF move PE_ligand.pdbqt
USER    NEWDPF about 3.037000 5.209000 3.149000
USER    NEWDPF tran0 31.061362 40.628332 28.416132
USER    NEWDPF quaternion0 0.771312 -0.102900 0.270717 -0.566746
USER    NEWDPF axisangle0 0.936181 -0.124895 0.328583 -110.952771
USER    NEWDPF quat0 0.936181 -0.124895 0.328583 -110.952771
USER    NEWDPF dihe0 178.68 19.13 -177.62 40.52 -21.03 -126.03 -45.42 47.53 25.16 
USER  keepresnum = 1 
USER  
REMARK  9 active torsions:
REMARK  status: ('A' for Active; 'I' for Inactive)
REMARK    1  A    between atoms: C1_1  and  C2_2 
REMARK    2  A    between atoms: C1_1  and  C3_3 
REMARK    3  A    between atoms: C2_2  and  C4_4 
REMARK    4  A    between atoms: C3_3  and  C5_5 
REMARK    5  A    between atoms: C4_4  and  C6_6 
REMARK    6  A    between atoms: C5_5  and  C7_7 
REMARK    7  A    between atoms: C6_6  and  C8_8 
REMARK    8  A    between atoms: C7_7  and  C9_9 
REMARK    9  A    between atoms: C8_8  and  C10_10 
USER                              x       y       z     vdW  Elec       q    Type
USER                           _______ _______ _______ _____ _____    ______ ____
ROOT
ATOM      1  C1  MOL C   1      30.791  39.611  28.916 -0.47 -0.00    +0.000 C 
ENDROOT
BRANCH   1   2
ATOM      2  C2  MOL C   1      32.097  40.400  29.088 -0.49 -0.00    +0.000 C 
BRANCH   2   3
ATOM      3  C4  MOL C   1      31.697  41.897  29.298 -0.45 -0.00    +0.000 C 
BRANCH   3   4
ATOM      4  C6  MOL C   1      32.585  42.637  30.432 -0.54 -0.00    +0.000 C 
BRANCH   4   5
ATOM      5  C8  MOL C   1      31.878  42.999  31.719 -0.43 +0.00    -0.000 C 
BRANCH   5   6
ATOM      6  C10 MOL C   1      30.388  42.737  31.522 -0.39 +0.00    -0.005 C 
ATOM      7  C12 MOL C   1      29.450  43.872  31.805 -0.48 -0.00    +0.005 C 
ENDBRANCH   5   6
ENDBRANCH   4   5
ENDBRANCH   3   4
ENDBRANCH   2   3
ENDBRANCH   1   2
BRANCH   1   8
ATOM      8  C3  MOL C   1      30.752  39.224  27.383 -0.55 -0.00    +0.000 C 
BRANCH   8   9
ATOM      9  C5  MOL C   1      29.606  40.143  26.638 -0.47 -0.00    +0.000 C 
BRANCH   9  10
ATOM     10  C7  MOL C   1      29.506  40.003  25.073 -0.58 +0.00    -0.000 C 
BRANCH  10  11
ATOM     11  C9  MOL C   1      29.627  41.347  24.273 -0.71 +0.00    -0.005 C 
ATOM     12  C11 MOL C   1      28.727  41.204  22.996 -0.79 -0.00    +0.005 C 
ENDBRANCH  10  11
ENDBRANCH   9  10
ENDBRANCH   8   9
ENDBRANCH   1   8
TORSDOF 9
TER
ENDMDL
MODEL       42
USER    Run = 42
USER    DPF = lac2.dpf
USER  
USER    Estimated Free Energy of Binding    =   -3.64 kcal/mol  [=(1)+(2)+(3)-(4)]
USER    Estimated Inhibition Constant, Ki   =    2.16 mM (millimolar)  [Temperature = 298.15 K]
USER    
USER    (1) Final Intermolecular Energy     =   -5.77 kcal/mol
USER        vdW + Hbond + desolv Energy     =   -5.77 kcal/mol
USER        Electrostatic Energy            =   +0.00 kcal/mol
USER    (2) Final Total Internal Energy     =   -0.84 kcal/mol
USER    (3) Torsional Free Energy           =   +2.68 kcal/mol
USER    (4) Unbound System's Energy         =   -0.29 kcal/mol
USER    
USER    
USER    NEWDPF move PE_ligand.pdbqt
USER    NEWDPF about 3.037000 5.209000 3.149000
USER    NEWDPF tran0 32.029845 41.011856 29.999955
USER    NEWDPF quaternion0 -0.555094 0.526719 -0.520524 -0.378805
USER    NEWDPF axisangle0 -0.599792 0.569133 -0.562439 -135.480608
USER    NEWDPF quat0 -0.599792 0.569133 -0.562439 -135.480608
USER    NEWDPF dihe0 -164.39 -29.87 -144.94 -146.22 -25.99 115.18 -142.78 26.34 65.63 
USER  keepresnum = 1 
USER  
REMARK  9 active torsions:
REMARK  status: ('A' for Active; 'I' for Inactive)
REMARK    1  A    between atoms: C1_1  and  C2_2 
REMARK    2  A    between atoms: C1_1  and  C3_3 
REMARK    3  A    between atoms: C2_2  and  C4_4 
REMARK    4  A    between atoms: C3_3  and  C5_5 
REMARK    5  A    between atoms: C4_4  and  C6_6 
REMARK    6  A    between atoms: C5_5  and  C7_7 
REMARK    7  A    between atoms: C6_6  and  C8_8 
REMARK    8  A    between atoms: C7_7  and  C9_9 
REMARK    9  A    between atoms: C8_8  and  C10_10 
USER                              x       y       z     vdW  Elec       q    Type
USER                           _______ _______ _______ _____ _____    ______ ____
ROOT
ATOM      1  C1  MOL C   1      32.615  40.883  29.001 -0.48 -0.00    +0.000 C 
ENDROOT
BRANCH   1   2
ATOM      2  C2  MOL C   1      32.261  39.778  30.006 -0.46 -0.00    +0.000 C 
BRANCH   2   3
ATOM      3  C4  MOL C   1      30.815  39.294  29.657 -0.42 -0.00    +0.000 C 
BRANCH   3   4
ATOM      4  C6  MOL C   1      30.564  39.147  28.065 -0.53 -0.00    +0.000 C 
BRANCH   4   5
ATOM      5  C8  MOL C   1      29.538  40.073  27.451 -0.47 +0.00    -0.000 C 
BRANCH   5   6
ATOM      6  C10 MOL C   1      29.427  41.304  28.344 -0.44 +0.00    -0.005 C 
ATOM      7  C12 MOL C   1      28.171  41.456  29.148 -0.41 -0.00    +0.005 C 
ENDBRANCH   5   6
ENDBRANCH   4   5
ENDBRANCH   3   4
ENDBRANCH   2   3
ENDBRANCH   1   2
BRANCH   1   8
ATOM      8  C3  MOL C   1      33.570  41.861  29.795 -0.53 -0.00    +0.000 C 
BRANCH   8   9
ATOM      9  C5  MOL C   1      32.997  43.398  29.638 -0.70 -0.00    +0.000 C 
BRANCH   9  10
ATOM     10  C7  MOL C   1      31.505  43.637  30.079 -0.43 +0.00    -0.000 C 
BRANCH  10  11
ATOM     11  C9  MOL C   1      31.120  43.046  31.480 -0.43 +0.00    -0.005 C 
ATOM     12  C11 MOL C   1      29.779  43.734  31.916 -0.48 -0.00    +0.005 C 
ENDBRANCH  10  11
ENDBRANCH   9  10
ENDBRANCH   8   9
ENDBRANCH   1   8
TORSDOF 9
TER
ENDMDL
MODEL       43
USER    Run = 43
USER    DPF = lac2.dpf
USER  
USER    Estimated Free Energy of Binding    =   -3.27 kcal/mol  [=(1)+(2)+(3)-(4)]
USER    Estimated Inhibition Constant, Ki   =    4.03 mM (millimolar)  [Temperature = 298.15 K]
USER    
USER    (1) Final Intermolecular Energy     =   -5.44 kcal/mol
USER        vdW + Hbond + desolv Energy     =   -5.44 kcal/mol
USER        Electrostatic Energy            =   +0.00 kcal/mol
USER    (2) Final Total Internal Energy     =   -0.80 kcal/mol
USER    (3) Torsional Free Energy           =   +2.68 kcal/mol
USER    (4) Unbound System's Energy         =   -0.29 kcal/mol
USER    
USER    
USER    NEWDPF move PE_ligand.pdbqt
USER    NEWDPF about 3.037000 5.209000 3.149000
USER    NEWDPF tran0 31.314126 42.199239 31.183179
USER    NEWDPF quaternion0 0.541294 0.771276 0.304507 0.139320
USER    NEWDPF axisangle0 0.546625 0.778872 0.307506 163.983023
USER    NEWDPF quat0 0.546625 0.778872 0.307506 163.983023
USER    NEWDPF dihe0 95.76 -179.82 89.43 -97.23 150.73 140.45 -124.56 17.81 -17.29 
USER  keepresnum = 1 
USER  
REMARK  9 active torsions:
REMARK  status: ('A' for Active; 'I' for Inactive)
REMARK    1  A    between atoms: C1_1  and  C2_2 
REMARK    2  A    between atoms: C1_1  and  C3_3 
REMARK    3  A    between atoms: C2_2  and  C4_4 
REMARK    4  A    between atoms: C3_3  and  C5_5 
REMARK    5  A    between atoms: C4_4  and  C6_6 
REMARK    6  A    between atoms: C5_5  and  C7_7 
REMARK    7  A    between atoms: C6_6  and  C8_8 
REMARK    8  A    between atoms: C7_7  and  C9_9 
REMARK    9  A    between atoms: C8_8  and  C10_10 
USER                              x       y       z     vdW  Elec       q    Type
USER                           _______ _______ _______ _____ _____    ______ ____
ROOT
ATOM      1  C1  MOL C   1      32.249  42.789  30.815 -0.50 -0.00    +0.000 C 
ENDROOT
BRANCH   1   2
ATOM      2  C2  MOL C   1      31.046  43.360  31.579 -0.41 -0.00    +0.000 C 
BRANCH   2   3
ATOM      3  C4  MOL C   1      30.094  42.158  31.889 -0.33 -0.00    +0.000 C 
BRANCH   3   4
ATOM      4  C6  MOL C   1      30.796  41.010  32.790 -0.27 -0.00    +0.000 C 
BRANCH   4   5
ATOM      5  C8  MOL C   1      31.269  41.421  34.166 -0.35 +0.00    -0.000 C 
BRANCH   5   6
ATOM      6  C10 MOL C   1      32.777  41.634  34.097 -0.49 +0.00    -0.005 C 
ATOM      7  C12 MOL C   1      33.374  42.625  35.050 -0.61 -0.00    +0.005 C 
ENDBRANCH   5   6
ENDBRANCH   4   5
ENDBRANCH   3   4
ENDBRANCH   2   3
ENDBRANCH   1   2
BRANCH   1   8
ATOM      8  C3  MOL C   1      31.649  42.272  29.446 -0.48 -0.00    +0.000 C 
BRANCH   8   9
ATOM      9  C5  MOL C   1      32.318  40.807  29.100 -0.49 -0.00    +0.000 C 
BRANCH   9  10
ATOM     10  C7  MOL C   1      31.692  39.561  29.831 -0.45 +0.00    -0.000 C 
BRANCH  10  11
ATOM     11  C9  MOL C   1      30.630  38.762  28.999 -0.49 +0.00    -0.005 C 
ATOM     12  C11 MOL C   1      30.752  39.247  27.512 -0.56 -0.00    +0.005 C 
ENDBRANCH  10  11
ENDBRANCH   9  10
ENDBRANCH   8   9
ENDBRANCH   1   8
TORSDOF 9
TER
ENDMDL
MODEL       44
USER    Run = 44
USER    DPF = lac2.dpf
USER  
USER    Estimated Free Energy of Binding    =   -4.04 kcal/mol  [=(1)+(2)+(3)-(4)]
USER    Estimated Inhibition Constant, Ki   =    1.09 mM (millimolar)  [Temperature = 298.15 K]
USER    
USER    (1) Final Intermolecular Energy     =   -6.41 kcal/mol
USER        vdW + Hbond + desolv Energy     =   -6.41 kcal/mol
USER        Electrostatic Energy            =   +0.00 kcal/mol
USER    (2) Final Total Internal Energy     =   -0.61 kcal/mol
USER    (3) Torsional Free Energy           =   +2.68 kcal/mol
USER    (4) Unbound System's Energy         =   -0.29 kcal/mol
USER    
USER    
USER    NEWDPF move PE_ligand.pdbqt
USER    NEWDPF about 3.037000 5.209000 3.149000
USER    NEWDPF tran0 30.221731 39.902154 28.166827
USER    NEWDPF quaternion0 0.128658 -0.729534 -0.107438 -0.663087
USER    NEWDPF axisangle0 0.171879 -0.974606 -0.143529 -96.928580
USER    NEWDPF quat0 0.171879 -0.974606 -0.143529 -96.928580
USER    NEWDPF dihe0 -127.06 170.82 58.27 -53.78 178.83 -158.67 -141.72 19.39 11.48 
USER  keepresnum = 1 
USER  
REMARK  9 active torsions:
REMARK  status: ('A' for Active; 'I' for Inactive)
REMARK    1  A    between atoms: C1_1  and  C2_2 
REMARK    2  A    between atoms: C1_1  and  C3_3 
REMARK    3  A    between atoms: C2_2  and  C4_4 
REMARK    4  A    between atoms: C3_3  and  C5_5 
REMARK    5  A    between atoms: C4_4  and  C6_6 
REMARK    6  A    between atoms: C5_5  and  C7_7 
REMARK    7  A    between atoms: C6_6  and  C8_8 
REMARK    8  A    between atoms: C7_7  and  C9_9 
REMARK    9  A    between atoms: C8_8  and  C10_10 
USER                              x       y       z     vdW  Elec       q    Type
USER                           _______ _______ _______ _____ _____    ______ ____
ROOT
ATOM      1  C1  MOL C   1      29.436  40.755  28.277 -0.45 -0.00    +0.000 C 
ENDROOT
BRANCH   1   2
ATOM      2  C2  MOL C   1      29.731  39.642  29.293 -0.37 -0.00    +0.000 C 
BRANCH   2   3
ATOM      3  C4  MOL C   1      31.245  39.281  29.142 -0.49 -0.00    +0.000 C 
BRANCH   3   4
ATOM      4  C6  MOL C   1      32.195  40.583  28.992 -0.49 -0.00    +0.000 C 
BRANCH   4   5
ATOM      5  C8  MOL C   1      32.728  41.185  30.273 -0.51 +0.00    -0.000 C 
BRANCH   5   6
ATOM      6  C10 MOL C   1      32.503  42.692  30.209 -0.57 +0.00    -0.005 C 
ATOM      7  C12 MOL C   1      33.358  43.473  29.257 -0.69 -0.00    +0.005 C 
ENDBRANCH   5   6
ENDBRANCH   4   5
ENDBRANCH   3   4
ENDBRANCH   2   3
ENDBRANCH   1   2
BRANCH   1   8
ATOM      8  C3  MOL C   1      28.897  40.002  26.996 -0.27 -0.00    +0.000 C 
BRANCH   8   9
ATOM      9  C5  MOL C   1      29.617  40.650  25.664 -0.43 -0.00    +0.000 C 
BRANCH   9  10
ATOM     10  C7  MOL C   1      30.010  39.641  24.521 -0.66 +0.00    -0.000 C 
BRANCH  10  11
ATOM     11  C9  MOL C   1      29.769  40.159  23.060 -0.70 +0.00    -0.005 C 
ATOM     12  C11 MOL C   1      29.281  41.646  23.175 -0.80 -0.00    +0.005 C 
ENDBRANCH  10  11
ENDBRANCH   9  10
ENDBRANCH   8   9
ENDBRANCH   1   8
TORSDOF 9
TER
ENDMDL
MODEL       45
USER    Run = 45
USER    DPF = lac2.dpf
USER  
USER    Estimated Free Energy of Binding    =   -3.46 kcal/mol  [=(1)+(2)+(3)-(4)]
USER    Estimated Inhibition Constant, Ki   =    2.89 mM (millimolar)  [Temperature = 298.15 K]
USER    
USER    (1) Final Intermolecular Energy     =   -5.67 kcal/mol
USER        vdW + Hbond + desolv Energy     =   -5.67 kcal/mol
USER        Electrostatic Energy            =   +0.00 kcal/mol
USER    (2) Final Total Internal Energy     =   -0.76 kcal/mol
USER    (3) Torsional Free Energy           =   +2.68 kcal/mol
USER    (4) Unbound System's Energy         =   -0.29 kcal/mol
USER    
USER    
USER    NEWDPF move PE_ligand.pdbqt
USER    NEWDPF about 3.037000 5.209000 3.149000
USER    NEWDPF tran0 30.748211 40.656800 29.196704
USER    NEWDPF quaternion0 -0.896815 0.123769 0.130678 0.404138
USER    NEWDPF axisangle0 -0.980449 0.135311 0.142865 132.325756
USER    NEWDPF quat0 -0.980449 0.135311 0.142865 132.325756
USER    NEWDPF dihe0 -149.42 -97.45 121.98 -96.27 68.65 -35.59 101.12 58.30 74.15 
USER  keepresnum = 1 
USER  
REMARK  9 active torsions:
REMARK  status: ('A' for Active; 'I' for Inactive)
REMARK    1  A    between atoms: C1_1  and  C2_2 
REMARK    2  A    between atoms: C1_1  and  C3_3 
REMARK    3  A    between atoms: C2_2  and  C4_4 
REMARK    4  A    between atoms: C3_3  and  C5_5 
REMARK    5  A    between atoms: C4_4  and  C6_6 
REMARK    6  A    between atoms: C5_5  and  C7_7 
REMARK    7  A    between atoms: C6_6  and  C8_8 
REMARK    8  A    between atoms: C7_7  and  C9_9 
REMARK    9  A    between atoms: C8_8  and  C10_10 
USER                              x       y       z     vdW  Elec       q    Type
USER                           _______ _______ _______ _____ _____    ______ ____
ROOT
ATOM      1  C1  MOL C   1      30.290  39.603  29.390 -0.39 -0.00    +0.000 C 
ENDROOT
BRANCH   1   2
ATOM      2  C2  MOL C   1      31.714  39.910  28.903 -0.48 -0.00    +0.000 C 
BRANCH   2   3
ATOM      3  C4  MOL C   1      32.626  39.962  30.172 -0.48 -0.00    +0.000 C 
BRANCH   3   4
ATOM      4  C6  MOL C   1      32.416  41.307  31.048 -0.42 -0.00    +0.000 C 
BRANCH   4   5
ATOM      5  C8  MOL C   1      31.800  42.491  30.338 -0.48 +0.00    -0.000 C 
BRANCH   5   6
ATOM      6  C10 MOL C   1      32.811  43.001  29.317 -0.66 +0.00    -0.005 C 
ATOM      7  C12 MOL C   1      33.722  44.111  29.749 -0.57 -0.00    +0.005 C 
ENDBRANCH   5   6
ENDBRANCH   4   5
ENDBRANCH   3   4
ENDBRANCH   2   3
ENDBRANCH   1   2
BRANCH   1   8
ATOM      8  C3  MOL C   1      29.345  40.146  28.245 -0.43 -0.00    +0.000 C 
BRANCH   8   9
ATOM      9  C5  MOL C   1      28.828  41.654  28.661 -0.43 -0.00    +0.000 C 
BRANCH   9  10
ATOM     10  C7  MOL C   1      27.432  41.741  29.382 -0.40 +0.00    -0.000 C 
BRANCH  10  11
ATOM     11  C9  MOL C   1      27.492  41.851  30.945 -0.39 +0.00    -0.005 C 
ATOM     12  C11 MOL C   1      27.391  43.375  31.303 -0.54 -0.00    +0.005 C 
ENDBRANCH  10  11
ENDBRANCH   9  10
ENDBRANCH   8   9
ENDBRANCH   1   8
TORSDOF 9
TER
ENDMDL
MODEL       46
USER    Run = 46
USER    DPF = lac2.dpf
USER  
USER    Estimated Free Energy of Binding    =   -3.74 kcal/mol  [=(1)+(2)+(3)-(4)]
USER    Estimated Inhibition Constant, Ki   =    1.82 mM (millimolar)  [Temperature = 298.15 K]
USER    
USER    (1) Final Intermolecular Energy     =   -6.16 kcal/mol
USER        vdW + Hbond + desolv Energy     =   -6.16 kcal/mol
USER        Electrostatic Energy            =   +0.00 kcal/mol
USER    (2) Final Total Internal Energy     =   -0.55 kcal/mol
USER    (3) Torsional Free Energy           =   +2.68 kcal/mol
USER    (4) Unbound System's Energy         =   -0.29 kcal/mol
USER    
USER    
USER    NEWDPF move PE_ligand.pdbqt
USER    NEWDPF about 3.037000 5.209000 3.149000
USER    NEWDPF tran0 30.048602 39.930441 28.249172
USER    NEWDPF quaternion0 0.113126 0.799162 0.082012 0.584651
USER    NEWDPF axisangle0 0.139441 0.985057 0.101089 108.443267
USER    NEWDPF quat0 0.139441 0.985057 0.101089 108.443267
USER    NEWDPF dihe0 166.05 -162.79 -90.32 -89.82 176.99 -99.57 95.15 8.26 88.05 
USER  keepresnum = 1 
USER  
REMARK  9 active torsions:
REMARK  status: ('A' for Active; 'I' for Inactive)
REMARK    1  A    between atoms: C1_1  and  C2_2 
REMARK    2  A    between atoms: C1_1  and  C3_3 
REMARK    3  A    between atoms: C2_2  and  C4_4 
REMARK    4  A    between atoms: C3_3  and  C5_5 
REMARK    5  A    between atoms: C4_4  and  C6_6 
REMARK    6  A    between atoms: C5_5  and  C7_7 
REMARK    7  A    between atoms: C6_6  and  C8_8 
REMARK    8  A    between atoms: C7_7  and  C9_9 
REMARK    9  A    between atoms: C8_8  and  C10_10 
USER                              x       y       z     vdW  Elec       q    Type
USER                           _______ _______ _______ _____ _____    ______ ____
ROOT
ATOM      1  C1  MOL C   1      29.628  40.964  27.914 -0.41 -0.00    +0.000 C 
ENDROOT
BRANCH   1   2
ATOM      2  C2  MOL C   1      29.394  40.271  29.265 -0.36 -0.00    +0.000 C 
BRANCH   2   3
ATOM      3  C4  MOL C   1      30.228  41.058  30.328 -0.29 -0.00    +0.000 C 
BRANCH   3   4
ATOM      4  C6  MOL C   1      31.796  40.656  30.327 -0.40 -0.00    +0.000 C 
BRANCH   4   5
ATOM      5  C8  MOL C   1      32.691  41.417  29.375 -0.56 +0.00    -0.000 C 
BRANCH   5   6
ATOM      6  C10 MOL C   1      32.997  42.772  30.005 -0.61 +0.00    -0.005 C 
ATOM      7  C12 MOL C   1      32.976  43.968  29.101 -0.65 -0.00    +0.005 C 
ENDBRANCH   5   6
ENDBRANCH   4   5
ENDBRANCH   3   4
ENDBRANCH   2   3
ENDBRANCH   1   2
BRANCH   1   8
ATOM      8  C3  MOL C   1      28.970  40.001  26.847 -0.28 -0.00    +0.000 C 
BRANCH   8   9
ATOM      9  C5  MOL C   1      29.846  40.085  25.454 -0.51 -0.00    +0.000 C 
BRANCH   9  10
ATOM     10  C7  MOL C   1      29.113  39.627  24.138 -0.59 +0.00    -0.000 C 
BRANCH  10  11
ATOM     11  C9  MOL C   1      28.655  40.790  23.190 -0.75 +0.00    -0.005 C 
ATOM     12  C11 MOL C   1      29.680  41.964  23.374 -0.73 -0.00    +0.005 C 
ENDBRANCH  10  11
ENDBRANCH   9  10
ENDBRANCH   8   9
ENDBRANCH   1   8
TORSDOF 9
TER
ENDMDL
MODEL       47
USER    Run = 47
USER    DPF = lac2.dpf
USER  
USER    Estimated Free Energy of Binding    =   -4.10 kcal/mol  [=(1)+(2)+(3)-(4)]
USER    Estimated Inhibition Constant, Ki   =  986.24 uM (micromolar)  [Temperature = 298.15 K]
USER    
USER    (1) Final Intermolecular Energy     =   -6.60 kcal/mol
USER        vdW + Hbond + desolv Energy     =   -6.60 kcal/mol
USER        Electrostatic Energy            =   +0.00 kcal/mol
USER    (2) Final Total Internal Energy     =   -0.47 kcal/mol
USER    (3) Torsional Free Energy           =   +2.68 kcal/mol
USER    (4) Unbound System's Energy         =   -0.29 kcal/mol
USER    
USER    
USER    NEWDPF move PE_ligand.pdbqt
USER    NEWDPF about 3.037000 5.209000 3.149000
USER    NEWDPF tran0 30.219717 40.653255 26.864780
USER    NEWDPF quaternion0 0.320661 0.357071 -0.811838 -0.332559
USER    NEWDPF axisangle0 0.340014 0.378621 -0.860835 -141.151660
USER    NEWDPF quat0 0.340014 0.378621 -0.860835 -141.151660
USER    NEWDPF dihe0 114.98 -151.75 179.70 -11.72 6.17 169.10 54.60 23.82 97.10 
USER  keepresnum = 1 
USER  
REMARK  9 active torsions:
REMARK  status: ('A' for Active; 'I' for Inactive)
REMARK    1  A    between atoms: C1_1  and  C2_2 
REMARK    2  A    between atoms: C1_1  and  C3_3 
REMARK    3  A    between atoms: C2_2  and  C4_4 
REMARK    4  A    between atoms: C3_3  and  C5_5 
REMARK    5  A    between atoms: C4_4  and  C6_6 
REMARK    6  A    between atoms: C5_5  and  C7_7 
REMARK    7  A    between atoms: C6_6  and  C8_8 
REMARK    8  A    between atoms: C7_7  and  C9_9 
REMARK    9  A    between atoms: C8_8  and  C10_10 
USER                              x       y       z     vdW  Elec       q    Type
USER                           _______ _______ _______ _____ _____    ______ ____
ROOT
ATOM      1  C1  MOL C   1      30.742  39.626  27.035 -0.35 -0.00    +0.000 C 
ENDROOT
BRANCH   1   2
ATOM      2  C2  MOL C   1      29.543  39.905  26.118 -0.40 -0.00    +0.000 C 
BRANCH   2   3
ATOM      3  C4  MOL C   1      30.009  39.597  24.657 -0.62 -0.00    +0.000 C 
BRANCH   3   4
ATOM      4  C6  MOL C   1      29.892  40.876  23.672 -0.76 -0.00    +0.000 C 
BRANCH   4   5
ATOM      5  C8  MOL C   1      28.535  41.137  23.056 -0.77 +0.00    -0.000 C 
BRANCH   5   6
ATOM      6  C10 MOL C   1      27.658  39.919  23.328 -0.54 +0.00    -0.005 C 
ATOM      7  C12 MOL C   1      26.200  40.038  22.999 -0.64 -0.00    +0.005 C 
ENDBRANCH   5   6
ENDBRANCH   4   5
ENDBRANCH   3   4
ENDBRANCH   2   3
ENDBRANCH   1   2
BRANCH   1   8
ATOM      8  C3  MOL C   1      30.221  39.955  28.492 -0.46 -0.00    +0.000 C 
BRANCH   8   9
ATOM      9  C5  MOL C   1      31.323  40.928  29.236 -0.42 -0.00    +0.000 C 
BRANCH   9  10
ATOM     10  C7  MOL C   1      30.890  42.423  29.471 -0.41 +0.00    -0.000 C 
BRANCH  10  11
ATOM     11  C9  MOL C   1      31.982  43.341  30.121 -0.54 +0.00    -0.005 C 
ATOM     12  C11 MOL C   1      33.349  42.983  29.438 -0.68 -0.00    +0.005 C 
ENDBRANCH  10  11
ENDBRANCH   9  10
ENDBRANCH   8   9
ENDBRANCH   1   8
TORSDOF 9
TER
ENDMDL
MODEL       48
USER    Run = 48
USER    DPF = lac2.dpf
USER  
USER    Estimated Free Energy of Binding    =   -3.67 kcal/mol  [=(1)+(2)+(3)-(4)]
USER    Estimated Inhibition Constant, Ki   =    2.05 mM (millimolar)  [Temperature = 298.15 K]
USER    
USER    (1) Final Intermolecular Energy     =   -5.71 kcal/mol
USER        vdW + Hbond + desolv Energy     =   -5.72 kcal/mol
USER        Electrostatic Energy            =   +0.00 kcal/mol
USER    (2) Final Total Internal Energy     =   -0.93 kcal/mol
USER    (3) Torsional Free Energy           =   +2.68 kcal/mol
USER    (4) Unbound System's Energy         =   -0.29 kcal/mol
USER    
USER    
USER    NEWDPF move PE_ligand.pdbqt
USER    NEWDPF about 3.037000 5.209000 3.149000
USER    NEWDPF tran0 30.900795 38.885305 28.745150
USER    NEWDPF quaternion0 -0.444953 -0.532941 -0.283442 -0.661551
USER    NEWDPF axisangle0 -0.593351 -0.710684 -0.377973 -97.163394
USER    NEWDPF quat0 -0.593351 -0.710684 -0.377973 -97.163394
USER    NEWDPF dihe0 -113.67 -48.57 68.42 -128.09 123.69 -51.22 -123.58 -101.18 105.29 
USER  keepresnum = 1 
USER  
REMARK  9 active torsions:
REMARK  status: ('A' for Active; 'I' for Inactive)
REMARK    1  A    between atoms: C1_1  and  C2_2 
REMARK    2  A    between atoms: C1_1  and  C3_3 
REMARK    3  A    between atoms: C2_2  and  C4_4 
REMARK    4  A    between atoms: C3_3  and  C5_5 
REMARK    5  A    between atoms: C4_4  and  C6_6 
REMARK    6  A    between atoms: C5_5  and  C7_7 
REMARK    7  A    between atoms: C6_6  and  C8_8 
REMARK    8  A    between atoms: C7_7  and  C9_9 
REMARK    9  A    between atoms: C8_8  and  C10_10 
USER                              x       y       z     vdW  Elec       q    Type
USER                           _______ _______ _______ _____ _____    ______ ____
ROOT
ATOM      1  C1  MOL C   1      31.272  39.939  28.417 -0.45 -0.00    +0.000 C 
ENDROOT
BRANCH   1   2
ATOM      2  C2  MOL C   1      31.173  39.408  29.854 -0.42 -0.00    +0.000 C 
BRANCH   2   3
ATOM      3  C4  MOL C   1      32.591  39.565  30.494 -0.45 -0.00    +0.000 C 
BRANCH   3   4
ATOM      4  C6  MOL C   1      33.092  41.103  30.556 -0.50 -0.00    +0.000 C 
BRANCH   4   5
ATOM      5  C8  MOL C   1      32.030  42.153  30.791 -0.45 +0.00    -0.000 C 
BRANCH   5   6
ATOM      6  C10 MOL C   1      32.079  43.135  29.625 -0.58 +0.00    -0.005 C 
ATOM      7  C12 MOL C   1      33.379  43.840  29.378 -0.70 -0.00    +0.005 C 
ENDBRANCH   5   6
ENDBRANCH   4   5
ENDBRANCH   3   4
ENDBRANCH   2   3
ENDBRANCH   1   2
BRANCH   1   8
ATOM      8  C3  MOL C   1      29.782  39.958  27.889 -0.47 -0.00    +0.000 C 
BRANCH   8   9
ATOM      9  C5  MOL C   1      29.241  41.514  27.897 -0.47 -0.00    +0.000 C 
BRANCH   9  10
ATOM     10  C7  MOL C   1      28.130  41.862  28.957 -0.43 +0.00    -0.000 C 
BRANCH  10  11
ATOM     11  C9  MOL C   1      28.588  41.787  30.455 -0.33 +0.00    -0.005 C 
ATOM     12  C11 MOL C   1      27.828  42.922  31.225 -0.47 -0.00    +0.005 C 
ENDBRANCH  10  11
ENDBRANCH   9  10
ENDBRANCH   8   9
ENDBRANCH   1   8
TORSDOF 9
TER
ENDMDL
MODEL       49
USER    Run = 49
USER    DPF = lac2.dpf
USER  
USER    Estimated Free Energy of Binding    =   -3.53 kcal/mol  [=(1)+(2)+(3)-(4)]
USER    Estimated Inhibition Constant, Ki   =    2.58 mM (millimolar)  [Temperature = 298.15 K]
USER    
USER    (1) Final Intermolecular Energy     =   -6.04 kcal/mol
USER        vdW + Hbond + desolv Energy     =   -6.04 kcal/mol
USER        Electrostatic Energy            =   +0.00 kcal/mol
USER    (2) Final Total Internal Energy     =   -0.46 kcal/mol
USER    (3) Torsional Free Energy           =   +2.68 kcal/mol
USER    (4) Unbound System's Energy         =   -0.29 kcal/mol
USER    
USER    
USER    NEWDPF move PE_ligand.pdbqt
USER    NEWDPF about 3.037000 5.209000 3.149000
USER    NEWDPF tran0 30.410880 40.467563 28.005460
USER    NEWDPF quaternion0 -0.105591 -0.346428 0.786166 0.500781
USER    NEWDPF axisangle0 -0.121990 -0.400229 0.908260 119.896688
USER    NEWDPF quat0 -0.121990 -0.400229 0.908260 119.896688
USER    NEWDPF dihe0 -85.59 71.90 87.63 -114.08 -61.86 177.90 -73.10 -7.84 24.41 
USER  keepresnum = 1 
USER  
REMARK  9 active torsions:
REMARK  status: ('A' for Active; 'I' for Inactive)
REMARK    1  A    between atoms: C1_1  and  C2_2 
REMARK    2  A    between atoms: C1_1  and  C3_3 
REMARK    3  A    between atoms: C2_2  and  C4_4 
REMARK    4  A    between atoms: C3_3  and  C5_5 
REMARK    5  A    between atoms: C4_4  and  C6_6 
REMARK    6  A    between atoms: C5_5  and  C7_7 
REMARK    7  A    between atoms: C6_6  and  C8_8 
REMARK    8  A    between atoms: C7_7  and  C9_9 
REMARK    9  A    between atoms: C8_8  and  C10_10 
USER                              x       y       z     vdW  Elec       q    Type
USER                           _______ _______ _______ _____ _____    ______ ____
ROOT
ATOM      1  C1  MOL C   1      31.355  39.825  28.236 -0.43 -0.00    +0.000 C 
ENDROOT
BRANCH   1   2
ATOM      2  C2  MOL C   1      30.040  39.334  27.615 -0.41 -0.00    +0.000 C 
BRANCH   2   3
ATOM      3  C4  MOL C   1      29.622  40.393  26.543 -0.44 -0.00    +0.000 C 
BRANCH   3   4
ATOM      4  C6  MOL C   1      29.722  39.834  25.027 -0.56 -0.00    +0.000 C 
BRANCH   4   5
ATOM      5  C8  MOL C   1      30.004  40.853  23.946 -0.72 +0.00    -0.000 C 
BRANCH   5   6
ATOM      6  C10 MOL C   1      28.695  41.134  23.216 -0.77 +0.00    -0.005 C 
ATOM      7  C12 MOL C   1      27.695  40.019  23.149 -0.56 -0.00    +0.005 C 
ENDBRANCH   5   6
ENDBRANCH   4   5
ENDBRANCH   3   4
ENDBRANCH   2   3
ENDBRANCH   1   2
BRANCH   1   8
ATOM      8  C3  MOL C   1      30.957  40.322  29.683 -0.38 -0.00    +0.000 C 
BRANCH   8   9
ATOM      9  C5  MOL C   1      32.167  41.280  30.261 -0.46 -0.00    +0.000 C 
BRANCH   9  10
ATOM     10  C7  MOL C   1      31.785  42.774  30.580 -0.49 +0.00    -0.000 C 
BRANCH  10  11
ATOM     11  C9  MOL C   1      31.063  43.000  31.953 -0.42 +0.00    -0.005 C 
ATOM     12  C11 MOL C   1      29.521  42.989  31.669 -0.42 -0.00    +0.005 C 
ENDBRANCH  10  11
ENDBRANCH   9  10
ENDBRANCH   8   9
ENDBRANCH   1   8
TORSDOF 9
TER
ENDMDL
MODEL       50
USER    Run = 50
USER    DPF = lac2.dpf
USER  
USER    Estimated Free Energy of Binding    =   -3.43 kcal/mol  [=(1)+(2)+(3)-(4)]
USER    Estimated Inhibition Constant, Ki   =    3.07 mM (millimolar)  [Temperature = 298.15 K]
USER    
USER    (1) Final Intermolecular Energy     =   -5.34 kcal/mol
USER        vdW + Hbond + desolv Energy     =   -5.34 kcal/mol
USER        Electrostatic Energy            =   +0.00 kcal/mol
USER    (2) Final Total Internal Energy     =   -1.06 kcal/mol
USER    (3) Torsional Free Energy           =   +2.68 kcal/mol
USER    (4) Unbound System's Energy         =   -0.29 kcal/mol
USER    
USER    
USER    NEWDPF move PE_ligand.pdbqt
USER    NEWDPF about 3.037000 5.209000 3.149000
USER    NEWDPF tran0 31.874238 41.334333 30.353049
USER    NEWDPF quaternion0 -0.586331 0.243361 -0.228776 -0.738006
USER    NEWDPF axisangle0 -0.868904 0.360645 -0.339030 -84.876394
USER    NEWDPF quat0 -0.868904 0.360645 -0.339030 -84.876394
USER    NEWDPF dihe0 -56.56 133.74 -21.71 5.12 -30.16 162.80 180.00 35.70 40.48 
USER  keepresnum = 1 
USER  
REMARK  9 active torsions:
REMARK  status: ('A' for Active; 'I' for Inactive)
REMARK    1  A    between atoms: C1_1  and  C2_2 
REMARK    2  A    between atoms: C1_1  and  C3_3 
REMARK    3  A    between atoms: C2_2  and  C4_4 
REMARK    4  A    between atoms: C3_3  and  C5_5 
REMARK    5  A    between atoms: C4_4  and  C6_6 
REMARK    6  A    between atoms: C5_5  and  C7_7 
REMARK    7  A    between atoms: C6_6  and  C8_8 
REMARK    8  A    between atoms: C7_7  and  C9_9 
REMARK    9  A    between atoms: C8_8  and  C10_10 
USER                              x       y       z     vdW  Elec       q    Type
USER                           _______ _______ _______ _____ _____    ______ ____
ROOT
ATOM      1  C1  MOL C   1      32.312  42.157  29.654 -0.56 -0.00    +0.000 C 
ENDROOT
BRANCH   1   2
ATOM      2  C2  MOL C   1      33.044  40.913  30.178 -0.52 -0.00    +0.000 C 
BRANCH   2   3
ATOM      3  C4  MOL C   1      32.246  39.669  29.666 -0.46 -0.00    +0.000 C 
BRANCH   3   4
ATOM      4  C6  MOL C   1      31.021  40.062  28.684 -0.47 -0.00    +0.000 C 
BRANCH   4   5
ATOM      5  C8  MOL C   1      29.634  39.662  29.134 -0.38 +0.00    -0.000 C 
BRANCH   5   6
ATOM      6  C10 MOL C   1      28.656  40.716  28.628 -0.41 +0.00    -0.005 C 
ATOM      7  C12 MOL C   1      29.229  41.869  27.860 -0.47 -0.00    +0.005 C 
ENDBRANCH   5   6
ENDBRANCH   4   5
ENDBRANCH   3   4
ENDBRANCH   2   3
ENDBRANCH   1   2
BRANCH   1   8
ATOM      8  C3  MOL C   1      31.970  42.999  30.947 -0.49 -0.00    +0.000 C 
BRANCH   8   9
ATOM      9  C5  MOL C   1      30.334  43.158  31.053 -0.40 -0.00    +0.000 C 
BRANCH   9  10
ATOM     10  C7  MOL C   1      29.609  42.240  32.107 -0.33 +0.00    -0.000 C 
BRANCH  10  11
ATOM     11  C9  MOL C   1      28.070  42.046  31.876 -0.33 +0.00    -0.005 C 
ATOM     12  C11 MOL C   1      27.526  43.378  31.252 -0.52 -0.00    +0.005 C 
ENDBRANCH  10  11
ENDBRANCH   9  10
ENDBRANCH   8   9
ENDBRANCH   1   8
TORSDOF 9
TER
ENDMDL
MODEL       51
USER    Run = 51
USER    DPF = lac2.dpf
USER  
USER    Estimated Free Energy of Binding    =   -3.53 kcal/mol  [=(1)+(2)+(3)-(4)]
USER    Estimated Inhibition Constant, Ki   =    2.58 mM (millimolar)  [Temperature = 298.15 K]
USER    
USER    (1) Final Intermolecular Energy     =   -5.52 kcal/mol
USER        vdW + Hbond + desolv Energy     =   -5.52 kcal/mol
USER        Electrostatic Energy            =   +0.00 kcal/mol
USER    (2) Final Total Internal Energy     =   -0.98 kcal/mol
USER    (3) Torsional Free Energy           =   +2.68 kcal/mol
USER    (4) Unbound System's Energy         =   -0.29 kcal/mol
USER    
USER    
USER    NEWDPF move PE_ligand.pdbqt
USER    NEWDPF about 3.037000 5.209000 3.149000
USER    NEWDPF tran0 29.614908 42.346747 31.366254
USER    NEWDPF quaternion0 -0.175242 -0.374205 -0.144562 -0.899090
USER    NEWDPF axisangle0 -0.400312 -0.854810 -0.330229 -51.922591
USER    NEWDPF quat0 -0.400312 -0.854810 -0.330229 -51.922591
USER    NEWDPF dihe0 32.90 143.06 -170.00 54.78 -60.58 148.46 -179.98 45.42 59.51 
USER  keepresnum = 1 
USER  
REMARK  9 active torsions:
REMARK  status: ('A' for Active; 'I' for Inactive)
REMARK    1  A    between atoms: C1_1  and  C2_2 
REMARK    2  A    between atoms: C1_1  and  C3_3 
REMARK    3  A    between atoms: C2_2  and  C4_4 
REMARK    4  A    between atoms: C3_3  and  C5_5 
REMARK    5  A    between atoms: C4_4  and  C6_6 
REMARK    6  A    between atoms: C5_5  and  C7_7 
REMARK    7  A    between atoms: C6_6  and  C8_8 
REMARK    8  A    between atoms: C7_7  and  C9_9 
REMARK    9  A    between atoms: C8_8  and  C10_10 
USER                              x       y       z     vdW  Elec       q    Type
USER                           _______ _______ _______ _____ _____    ______ ____
ROOT
ATOM      1  C1  MOL C   1      29.412  43.469  31.606 -0.45 -0.00    +0.000 C 
ENDROOT
BRANCH   1   2
ATOM      2  C2  MOL C   1      30.239  42.486  32.447 -0.37 -0.00    +0.000 C 
BRANCH   2   3
ATOM      3  C4  MOL C   1      31.638  42.367  31.758 -0.42 -0.00    +0.000 C 
BRANCH   3   4
ATOM      4  C6  MOL C   1      31.812  43.370  30.500 -0.48 -0.00    +0.000 C 
BRANCH   4   5
ATOM      5  C8  MOL C   1      32.726  42.909  29.387 -0.66 +0.00    -0.000 C 
BRANCH   5   6
ATOM      6  C10 MOL C   1      33.289  41.547  29.779 -0.55 +0.00    -0.005 C 
ATOM      7  C12 MOL C   1      32.494  40.338  29.387 -0.50 -0.00    +0.005 C 
ENDBRANCH   5   6
ENDBRANCH   4   5
ENDBRANCH   3   4
ENDBRANCH   2   3
ENDBRANCH   1   2
BRANCH   1   8
ATOM      8  C3  MOL C   1      27.945  42.878  31.620 -0.45 -0.00    +0.000 C 
BRANCH   8   9
ATOM      9  C5  MOL C   1      27.597  42.299  30.118 -0.43 -0.00    +0.000 C 
BRANCH   9  10
ATOM     10  C7  MOL C   1      27.986  40.799  29.839 -0.36 +0.00    -0.000 C 
BRANCH  10  11
ATOM     11  C9  MOL C   1      29.164  40.592  28.825 -0.39 +0.00    -0.005 C 
ATOM     12  C11 MOL C   1      29.230  41.877  27.927 -0.47 -0.00    +0.005 C 
ENDBRANCH  10  11
ENDBRANCH   9  10
ENDBRANCH   8   9
ENDBRANCH   1   8
TORSDOF 9
TER
ENDMDL
MODEL       52
USER    Run = 52
USER    DPF = lac2.dpf
USER  
USER    Estimated Free Energy of Binding    =   -3.80 kcal/mol  [=(1)+(2)+(3)-(4)]
USER    Estimated Inhibition Constant, Ki   =    1.65 mM (millimolar)  [Temperature = 298.15 K]
USER    
USER    (1) Final Intermolecular Energy     =   -6.40 kcal/mol
USER        vdW + Hbond + desolv Energy     =   -6.40 kcal/mol
USER        Electrostatic Energy            =   -0.00 kcal/mol
USER    (2) Final Total Internal Energy     =   -0.37 kcal/mol
USER    (3) Torsional Free Energy           =   +2.68 kcal/mol
USER    (4) Unbound System's Energy         =   -0.29 kcal/mol
USER    
USER    
USER    NEWDPF move PE_ligand.pdbqt
USER    NEWDPF about 3.037000 5.209000 3.149000
USER    NEWDPF tran0 29.755636 40.286906 28.863050
USER    NEWDPF quaternion0 -0.974732 -0.208080 -0.070157 0.040960
USER    NEWDPF axisangle0 -0.975551 -0.208254 -0.070216 175.304984
USER    NEWDPF quat0 -0.975551 -0.208254 -0.070216 175.304984
USER    NEWDPF dihe0 -20.70 131.22 -86.73 -29.24 39.39 154.82 7.11 -136.52 104.50 
USER  keepresnum = 1 
USER  
REMARK  9 active torsions:
REMARK  status: ('A' for Active; 'I' for Inactive)
REMARK    1  A    between atoms: C1_1  and  C2_2 
REMARK    2  A    between atoms: C1_1  and  C3_3 
REMARK    3  A    between atoms: C2_2  and  C4_4 
REMARK    4  A    between atoms: C3_3  and  C5_5 
REMARK    5  A    between atoms: C4_4  and  C6_6 
REMARK    6  A    between atoms: C5_5  and  C7_7 
REMARK    7  A    between atoms: C6_6  and  C8_8 
REMARK    8  A    between atoms: C7_7  and  C9_9 
REMARK    9  A    between atoms: C8_8  and  C10_10 
USER                              x       y       z     vdW  Elec       q    Type
USER                           _______ _______ _______ _____ _____    ______ ____
ROOT
ATOM      1  C1  MOL C   1      30.125  39.406  28.197 -0.47 -0.00    +0.000 C 
ENDROOT
BRANCH   1   2
ATOM      2  C2  MOL C   1      30.945  40.624  28.644 -0.33 -0.00    +0.000 C 
BRANCH   2   3
ATOM      3  C4  MOL C   1      32.213  40.073  29.376 -0.50 -0.00    +0.000 C 
BRANCH   3   4
ATOM      4  C6  MOL C   1      33.033  41.218  30.173 -0.54 -0.00    +0.000 C 
BRANCH   4   5
ATOM      5  C8  MOL C   1      33.366  42.475  29.401 -0.66 +0.00    -0.000 C 
BRANCH   5   6
ATOM      6  C10 MOL C   1      32.142  43.383  29.436 -0.60 +0.00    -0.005 C 
ATOM      7  C12 MOL C   1      31.314  43.370  30.686 -0.44 -0.00    +0.005 C 
ENDBRANCH   5   6
ENDBRANCH   4   5
ENDBRANCH   3   4
ENDBRANCH   2   3
ENDBRANCH   1   2
BRANCH   1   8
ATOM      8  C3  MOL C   1      28.965  40.004  27.304 -0.35 -0.00    +0.000 C 
BRANCH   8   9
ATOM      9  C5  MOL C   1      29.624  40.598  25.916 -0.40 -0.00    +0.000 C 
BRANCH   9  10
ATOM     10  C7  MOL C   1      29.615  39.636  24.670 -0.57 +0.00    -0.000 C 
BRANCH  10  11
ATOM     11  C9  MOL C   1      29.903  40.326  23.291 -0.75 +0.00    -0.005 C 
ATOM     12  C11 MOL C   1      29.252  41.753  23.346 -0.79 -0.00    +0.005 C 
ENDBRANCH  10  11
ENDBRANCH   9  10
ENDBRANCH   8   9
ENDBRANCH   1   8
TORSDOF 9
TER
ENDMDL
MODEL       53
USER    Run = 53
USER    DPF = lac2.dpf
USER  
USER    Estimated Free Energy of Binding    =   -3.51 kcal/mol  [=(1)+(2)+(3)-(4)]
USER    Estimated Inhibition Constant, Ki   =    2.68 mM (millimolar)  [Temperature = 298.15 K]
USER    
USER    (1) Final Intermolecular Energy     =   -5.63 kcal/mol
USER        vdW + Hbond + desolv Energy     =   -5.63 kcal/mol
USER        Electrostatic Energy            =   -0.00 kcal/mol
USER    (2) Final Total Internal Energy     =   -0.85 kcal/mol
USER    (3) Torsional Free Energy           =   +2.68 kcal/mol
USER    (4) Unbound System's Energy         =   -0.29 kcal/mol
USER    
USER    
USER    NEWDPF move PE_ligand.pdbqt
USER    NEWDPF about 3.037000 5.209000 3.149000
USER    NEWDPF tran0 29.567264 42.513947 31.073236
USER    NEWDPF quaternion0 0.082016 0.359897 0.894812 -0.251115
USER    NEWDPF axisangle0 0.084731 0.371811 0.924434 -150.912960
USER    NEWDPF quat0 0.084731 0.371811 0.924434 -150.912960
USER    NEWDPF dihe0 156.00 97.95 -14.73 -112.41 129.74 155.31 77.45 21.43 60.59 
USER  keepresnum = 1 
USER  
REMARK  9 active torsions:
REMARK  status: ('A' for Active; 'I' for Inactive)
REMARK    1  A    between atoms: C1_1  and  C2_2 
REMARK    2  A    between atoms: C1_1  and  C3_3 
REMARK    3  A    between atoms: C2_2  and  C4_4 
REMARK    4  A    between atoms: C3_3  and  C5_5 
REMARK    5  A    between atoms: C4_4  and  C6_6 
REMARK    6  A    between atoms: C5_5  and  C7_7 
REMARK    7  A    between atoms: C6_6  and  C8_8 
REMARK    8  A    between atoms: C7_7  and  C9_9 
REMARK    9  A    between atoms: C8_8  and  C10_10 
USER                              x       y       z     vdW  Elec       q    Type
USER                           _______ _______ _______ _____ _____    ______ ____
ROOT
ATOM      1  C1  MOL C   1      29.567  42.377  32.230 -0.34 -0.00    +0.000 C 
ENDROOT
BRANCH   1   2
ATOM      2  C2  MOL C   1      28.614  43.259  31.410 -0.41 -0.00    +0.000 C 
BRANCH   2   3
ATOM      3  C4  MOL C   1      27.519  42.312  30.817 -0.45 -0.00    +0.000 C 
BRANCH   3   4
ATOM      4  C6  MOL C   1      27.819  41.876  29.288 -0.42 -0.00    +0.000 C 
BRANCH   4   5
ATOM      5  C8  MOL C   1      29.256  41.557  28.943 -0.41 +0.00    -0.000 C 
BRANCH   5   6
ATOM      6  C10 MOL C   1      29.250  40.604  27.752 -0.46 +0.00    -0.005 C 
ATOM      7  C12 MOL C   1      30.366  39.606  27.667 -0.52 -0.00    +0.005 C 
ENDBRANCH   5   6
ENDBRANCH   4   5
ENDBRANCH   3   4
ENDBRANCH   2   3
ENDBRANCH   1   2
BRANCH   1   8
ATOM      8  C3  MOL C   1      31.000  43.000  31.992 -0.42 -0.00    +0.000 C 
BRANCH   8   9
ATOM      9  C5  MOL C   1      32.055  41.780  31.654 -0.39 -0.00    +0.000 C 
BRANCH   9  10
ATOM     10  C7  MOL C   1      32.322  41.489  30.130 -0.49 +0.00    -0.000 C 
BRANCH  10  11
ATOM     11  C9  MOL C   1      33.375  42.427  29.445 -0.65 +0.00    -0.005 C 
ATOM     12  C11 MOL C   1      32.736  43.857  29.368 -0.66 -0.00    +0.005 C 
ENDBRANCH  10  11
ENDBRANCH   9  10
ENDBRANCH   8   9
ENDBRANCH   1   8
TORSDOF 9
TER
ENDMDL
MODEL       54
USER    Run = 54
USER    DPF = lac2.dpf
USER  
USER    Estimated Free Energy of Binding    =   -3.70 kcal/mol  [=(1)+(2)+(3)-(4)]
USER    Estimated Inhibition Constant, Ki   =    1.95 mM (millimolar)  [Temperature = 298.15 K]
USER    
USER    (1) Final Intermolecular Energy     =   -6.10 kcal/mol
USER        vdW + Hbond + desolv Energy     =   -6.10 kcal/mol
USER        Electrostatic Energy            =   -0.00 kcal/mol
USER    (2) Final Total Internal Energy     =   -0.57 kcal/mol
USER    (3) Torsional Free Energy           =   +2.68 kcal/mol
USER    (4) Unbound System's Energy         =   -0.29 kcal/mol
USER    
USER    
USER    NEWDPF move PE_ligand.pdbqt
USER    NEWDPF about 3.037000 5.209000 3.149000
USER    NEWDPF tran0 28.950717 39.765988 22.946012
USER    NEWDPF quaternion0 0.123128 0.277898 -0.266932 0.914527
USER    NEWDPF axisangle0 0.304376 0.686974 -0.659865 47.722671
USER    NEWDPF quat0 0.304376 0.686974 -0.659865 47.722671
USER    NEWDPF dihe0 179.73 -170.60 -22.07 -92.56 105.57 -148.29 -93.06 -31.75 157.19 
USER  keepresnum = 1 
USER  
REMARK  9 active torsions:
REMARK  status: ('A' for Active; 'I' for Inactive)
REMARK    1  A    between atoms: C1_1  and  C2_2 
REMARK    2  A    between atoms: C1_1  and  C3_3 
REMARK    3  A    between atoms: C2_2  and  C4_4 
REMARK    4  A    between atoms: C3_3  and  C5_5 
REMARK    5  A    between atoms: C4_4  and  C6_6 
REMARK    6  A    between atoms: C5_5  and  C7_7 
REMARK    7  A    between atoms: C6_6  and  C8_8 
REMARK    8  A    between atoms: C7_7  and  C9_9 
REMARK    9  A    between atoms: C8_8  and  C10_10 
USER                              x       y       z     vdW  Elec       q    Type
USER                           _______ _______ _______ _____ _____    ______ ____
ROOT
ATOM      1  C1  MOL C   1      28.070  40.489  23.189 -0.64 -0.00    +0.000 C 
ENDROOT
BRANCH   1   2
ATOM      2  C2  MOL C   1      29.505  40.576  23.729 -0.75 -0.00    +0.000 C 
BRANCH   2   3
ATOM      3  C4  MOL C   1      29.583  41.872  24.601 -0.51 -0.00    +0.000 C 
BRANCH   3   4
ATOM      4  C6  MOL C   1      29.250  41.605  26.162 +0.09 -0.00    +0.000 C 
BRANCH   4   5
ATOM      5  C8  MOL C   1      29.290  40.168  26.629 -0.42 +0.00    -0.000 C 
BRANCH   5   6
ATOM      6  C10 MOL C   1      29.769  40.160  28.077 -0.45 +0.00    -0.005 C 
ATOM      7  C12 MOL C   1      30.967  39.319  28.398 -0.52 -0.00    +0.005 C 
ENDBRANCH   5   6
ENDBRANCH   4   5
ENDBRANCH   3   4
ENDBRANCH   2   3
ENDBRANCH   1   2
BRANCH   1   8
ATOM      8  C3  MOL C   1      27.510  39.120  23.748 -0.35 -0.00    +0.000 C 
BRANCH   8   9
ATOM      9  C5  MOL C   1      25.909  39.016  23.374 -0.65 -0.00    +0.000 C 
BRANCH   9  10
ATOM     10  C7  MOL C   1      25.323  37.564  23.207 -0.62 +0.00    -0.000 C 
BRANCH  10  11
ATOM     11  C9  MOL C   1      24.499  37.031  24.429 -0.71 +0.00    -0.005 C 
ATOM     12  C11 MOL C   1      23.997  38.286  25.227 -0.57 -0.00    +0.005 C 
ENDBRANCH  10  11
ENDBRANCH   9  10
ENDBRANCH   8   9
ENDBRANCH   1   8
TORSDOF 9
TER
ENDMDL
MODEL       55
USER    Run = 55
USER    DPF = lac2.dpf
USER  
USER    Estimated Free Energy of Binding    =   -3.56 kcal/mol  [=(1)+(2)+(3)-(4)]
USER    Estimated Inhibition Constant, Ki   =    2.44 mM (millimolar)  [Temperature = 298.15 K]
USER    
USER    (1) Final Intermolecular Energy     =   -5.63 kcal/mol
USER        vdW + Hbond + desolv Energy     =   -5.63 kcal/mol
USER        Electrostatic Energy            =   -0.00 kcal/mol
USER    (2) Final Total Internal Energy     =   -0.90 kcal/mol
USER    (3) Torsional Free Energy           =   +2.68 kcal/mol
USER    (4) Unbound System's Energy         =   -0.29 kcal/mol
USER    
USER    
USER    NEWDPF move PE_ligand.pdbqt
USER    NEWDPF about 3.037000 5.209000 3.149000
USER    NEWDPF tran0 29.805729 40.271861 29.254232
USER    NEWDPF quaternion0 0.830100 -0.361163 -0.296140 0.304625
USER    NEWDPF axisangle0 0.871521 -0.379185 -0.310917 144.528795
USER    NEWDPF quat0 0.871521 -0.379185 -0.310917 144.528795
USER    NEWDPF dihe0 146.08 76.93 95.68 131.71 -175.69 -145.69 39.21 13.40 0.12 
USER  keepresnum = 1 
USER  
REMARK  9 active torsions:
REMARK  status: ('A' for Active; 'I' for Inactive)
REMARK    1  A    between atoms: C1_1  and  C2_2 
REMARK    2  A    between atoms: C1_1  and  C3_3 
REMARK    3  A    between atoms: C2_2  and  C4_4 
REMARK    4  A    between atoms: C3_3  and  C5_5 
REMARK    5  A    between atoms: C4_4  and  C6_6 
REMARK    6  A    between atoms: C5_5  and  C7_7 
REMARK    7  A    between atoms: C6_6  and  C8_8 
REMARK    8  A    between atoms: C7_7  and  C9_9 
REMARK    9  A    between atoms: C8_8  and  C10_10 
USER                              x       y       z     vdW  Elec       q    Type
USER                           _______ _______ _______ _____ _____    ______ ____
ROOT
ATOM      1  C1  MOL C   1      28.854  40.378  28.591 -0.41 -0.00    +0.000 C 
ENDROOT
BRANCH   1   2
ATOM      2  C2  MOL C   1      30.258  39.969  28.123 -0.47 -0.00    +0.000 C 
BRANCH   2   3
ATOM      3  C4  MOL C   1      31.035  39.485  29.391 -0.45 -0.00    +0.000 C 
BRANCH   3   4
ATOM      4  C6  MOL C   1      32.549  40.053  29.461 -0.47 -0.00    +0.000 C 
BRANCH   4   5
ATOM      5  C8  MOL C   1      32.765  41.313  30.268 -0.51 +0.00    -0.000 C 
BRANCH   5   6
ATOM      6  C10 MOL C   1      32.713  42.497  29.308 -0.62 +0.00    -0.005 C 
ATOM      7  C12 MOL C   1      33.375  43.767  29.750 -0.69 -0.00    +0.005 C 
ENDBRANCH   5   6
ENDBRANCH   4   5
ENDBRANCH   3   4
ENDBRANCH   2   3
ENDBRANCH   1   2
BRANCH   1   8
ATOM      8  C3  MOL C   1      29.022  41.855  29.130 -0.39 -0.00    +0.000 C 
BRANCH   8   9
ATOM      9  C5  MOL C   1      28.081  42.035  30.471 -0.39 -0.00    +0.000 C 
BRANCH   9  10
ATOM     10  C7  MOL C   1      28.528  43.142  31.496 -0.43 +0.00    -0.000 C 
BRANCH  10  11
ATOM     11  C9  MOL C   1      30.078  43.347  31.625 -0.45 +0.00    -0.005 C 
ATOM     12  C11 MOL C   1      30.579  42.371  32.747 -0.36 -0.00    +0.005 C 
ENDBRANCH  10  11
ENDBRANCH   9  10
ENDBRANCH   8   9
ENDBRANCH   1   8
TORSDOF 9
TER
ENDMDL
MODEL       56
USER    Run = 56
USER    DPF = lac2.dpf
USER  
USER    Estimated Free Energy of Binding    =   -3.46 kcal/mol  [=(1)+(2)+(3)-(4)]
USER    Estimated Inhibition Constant, Ki   =    2.90 mM (millimolar)  [Temperature = 298.15 K]
USER    
USER    (1) Final Intermolecular Energy     =   -5.72 kcal/mol
USER        vdW + Hbond + desolv Energy     =   -5.72 kcal/mol
USER        Electrostatic Energy            =   +0.00 kcal/mol
USER    (2) Final Total Internal Energy     =   -0.71 kcal/mol
USER    (3) Torsional Free Energy           =   +2.68 kcal/mol
USER    (4) Unbound System's Energy         =   -0.29 kcal/mol
USER    
USER    
USER    NEWDPF move PE_ligand.pdbqt
USER    NEWDPF about 3.037000 5.209000 3.149000
USER    NEWDPF tran0 30.610467 40.298658 28.998231
USER    NEWDPF quaternion0 0.857311 -0.390606 -0.233492 -0.240679
USER    NEWDPF axisangle0 0.883275 -0.402436 -0.240563 -152.146773
USER    NEWDPF quat0 0.883275 -0.402436 -0.240563 -152.146773
USER    NEWDPF dihe0 -60.29 -72.51 28.00 -6.93 -176.73 102.78 90.55 -2.52 32.75 
USER  keepresnum = 1 
USER  
REMARK  9 active torsions:
REMARK  status: ('A' for Active; 'I' for Inactive)
REMARK    1  A    between atoms: C1_1  and  C2_2 
REMARK    2  A    between atoms: C1_1  and  C3_3 
REMARK    3  A    between atoms: C2_2  and  C4_4 
REMARK    4  A    between atoms: C3_3  and  C5_5 
REMARK    5  A    between atoms: C4_4  and  C6_6 
REMARK    6  A    between atoms: C5_5  and  C7_7 
REMARK    7  A    between atoms: C6_6  and  C8_8 
REMARK    8  A    between atoms: C7_7  and  C9_9 
REMARK    9  A    between atoms: C8_8  and  C10_10 
USER                              x       y       z     vdW  Elec       q    Type
USER                           _______ _______ _______ _____ _____    ______ ____
ROOT
ATOM      1  C1  MOL C   1      29.611  39.701  28.955 -0.39 -0.00    +0.000 C 
ENDROOT
BRANCH   1   2
ATOM      2  C2  MOL C   1      31.000  39.198  28.536 -0.52 -0.00    +0.000 C 
BRANCH   2   3
ATOM      3  C4  MOL C   1      31.961  39.465  29.742 -0.45 -0.00    +0.000 C 
BRANCH   3   4
ATOM      4  C6  MOL C   1      32.567  40.966  29.748 -0.53 -0.00    +0.000 C 
BRANCH   4   5
ATOM      5  C8  MOL C   1      31.822  41.995  30.568 -0.43 +0.00    -0.000 C 
BRANCH   5   6
ATOM      6  C10 MOL C   1      32.276  43.376  30.107 -0.58 +0.00    -0.005 C 
ATOM      7  C12 MOL C   1      33.375  43.432  29.089 -0.66 -0.00    +0.005 C 
ENDBRANCH   5   6
ENDBRANCH   4   5
ENDBRANCH   3   4
ENDBRANCH   2   3
ENDBRANCH   1   2
BRANCH   1   8
ATOM      8  C3  MOL C   1      29.300  40.897  27.969 -0.46 -0.00    +0.000 C 
BRANCH   8   9
ATOM      9  C5  MOL C   1      28.176  41.877  28.669 -0.42 -0.00    +0.000 C 
BRANCH   9  10
ATOM     10  C7  MOL C   1      28.382  42.198  30.196 -0.36 +0.00    -0.000 C 
BRANCH  10  11
ATOM     11  C9  MOL C   1      27.205  42.978  30.879 -0.51 +0.00    -0.005 C 
ATOM     12  C11 MOL C   1      26.684  42.084  32.058 -0.41 -0.00    +0.005 C 
ENDBRANCH  10  11
ENDBRANCH   9  10
ENDBRANCH   8   9
ENDBRANCH   1   8
TORSDOF 9
TER
ENDMDL
MODEL       57
USER    Run = 57
USER    DPF = lac2.dpf
USER  
USER    Estimated Free Energy of Binding    =   -4.23 kcal/mol  [=(1)+(2)+(3)-(4)]
USER    Estimated Inhibition Constant, Ki   =  796.66 uM (micromolar)  [Temperature = 298.15 K]
USER    
USER    (1) Final Intermolecular Energy     =   -6.66 kcal/mol
USER        vdW + Hbond + desolv Energy     =   -6.66 kcal/mol
USER        Electrostatic Energy            =   -0.00 kcal/mol
USER    (2) Final Total Internal Energy     =   -0.53 kcal/mol
USER    (3) Torsional Free Energy           =   +2.68 kcal/mol
USER    (4) Unbound System's Energy         =   -0.29 kcal/mol
USER    
USER    
USER    NEWDPF move PE_ligand.pdbqt
USER    NEWDPF about 3.037000 5.209000 3.149000
USER    NEWDPF tran0 29.809275 38.691297 27.708284
USER    NEWDPF quaternion0 -0.738662 -0.277353 -0.462374 -0.404553
USER    NEWDPF axisangle0 -0.807710 -0.303279 -0.505595 -132.273700
USER    NEWDPF quat0 -0.807710 -0.303279 -0.505595 -132.273700
USER    NEWDPF dihe0 59.74 166.63 -96.43 -70.54 177.34 -179.86 47.03 -24.36 -121.35 
USER  keepresnum = 1 
USER  
REMARK  9 active torsions:
REMARK  status: ('A' for Active; 'I' for Inactive)
REMARK    1  A    between atoms: C1_1  and  C2_2 
REMARK    2  A    between atoms: C1_1  and  C3_3 
REMARK    3  A    between atoms: C2_2  and  C4_4 
REMARK    4  A    between atoms: C3_3  and  C5_5 
REMARK    5  A    between atoms: C4_4  and  C6_6 
REMARK    6  A    between atoms: C5_5  and  C7_7 
REMARK    7  A    between atoms: C6_6  and  C8_8 
REMARK    8  A    between atoms: C7_7  and  C9_9 
REMARK    9  A    between atoms: C8_8  and  C10_10 
USER                              x       y       z     vdW  Elec       q    Type
USER                           _______ _______ _______ _____ _____    ______ ____
ROOT
ATOM      1  C1  MOL C   1      30.799  38.881  27.124 -0.50 -0.00    +0.000 C 
ENDROOT
BRANCH   1   2
ATOM      2  C2  MOL C   1      30.595  38.985  28.642 -0.51 -0.00    +0.000 C 
BRANCH   2   3
ATOM      3  C4  MOL C   1      30.474  40.507  28.980 -0.41 -0.00    +0.000 C 
BRANCH   3   4
ATOM      4  C6  MOL C   1      31.476  40.975  30.163 -0.38 -0.00    +0.000 C 
BRANCH   4   5
ATOM      5  C8  MOL C   1      32.864  41.404  29.746 -0.57 +0.00    -0.000 C 
BRANCH   5   6
ATOM      6  C10 MOL C   1      32.748  42.765  29.067 -0.59 +0.00    -0.005 C 
ATOM      7  C12 MOL C   1      33.412  43.927  29.743 -0.65 -0.00    +0.005 C 
ENDBRANCH   5   6
ENDBRANCH   4   5
ENDBRANCH   3   4
ENDBRANCH   2   3
ENDBRANCH   1   2
BRANCH   1   8
ATOM      8  C3  MOL C   1      29.860  39.996  26.513 -0.46 -0.00    +0.000 C 
BRANCH   8   9
ATOM      9  C5  MOL C   1      29.995  39.954  24.871 -0.60 -0.00    +0.000 C 
BRANCH   9  10
ATOM     10  C7  MOL C   1      28.670  39.678  24.068 -0.55 +0.00    -0.000 C 
BRANCH  10  11
ATOM     11  C9  MOL C   1      28.297  40.765  23.001 -0.72 +0.00    -0.005 C 
ATOM     12  C11 MOL C   1      29.416  41.863  23.052 -0.73 -0.00    +0.005 C 
ENDBRANCH  10  11
ENDBRANCH   9  10
ENDBRANCH   8   9
ENDBRANCH   1   8
TORSDOF 9
TER
ENDMDL
MODEL       58
USER    Run = 58
USER    DPF = lac2.dpf
USER  
USER    Estimated Free Energy of Binding    =   -3.97 kcal/mol  [=(1)+(2)+(3)-(4)]
USER    Estimated Inhibition Constant, Ki   =    1.24 mM (millimolar)  [Temperature = 298.15 K]
USER    
USER    (1) Final Intermolecular Energy     =   -6.39 kcal/mol
USER        vdW + Hbond + desolv Energy     =   -6.38 kcal/mol
USER        Electrostatic Energy            =   -0.00 kcal/mol
USER    (2) Final Total Internal Energy     =   -0.55 kcal/mol
USER    (3) Torsional Free Energy           =   +2.68 kcal/mol
USER    (4) Unbound System's Energy         =   -0.29 kcal/mol
USER    
USER    
USER    NEWDPF move PE_ligand.pdbqt
USER    NEWDPF about 3.037000 5.209000 3.149000
USER    NEWDPF tran0 29.877348 40.544421 28.238687
USER    NEWDPF quaternion0 0.740884 -0.137737 0.519488 -0.402804
USER    NEWDPF axisangle0 0.809456 -0.150485 0.567569 -132.492768
USER    NEWDPF quat0 0.809456 -0.150485 0.567569 -132.492768
USER    NEWDPF dihe0 -157.88 85.89 -62.36 54.25 54.08 -75.33 -20.61 51.80 -130.51 
USER  keepresnum = 1 
USER  
REMARK  9 active torsions:
REMARK  status: ('A' for Active; 'I' for Inactive)
REMARK    1  A    between atoms: C1_1  and  C2_2 
REMARK    2  A    between atoms: C1_1  and  C3_3 
REMARK    3  A    between atoms: C2_2  and  C4_4 
REMARK    4  A    between atoms: C3_3  and  C5_5 
REMARK    5  A    between atoms: C4_4  and  C6_6 
REMARK    6  A    between atoms: C5_5  and  C7_7 
REMARK    7  A    between atoms: C6_6  and  C8_8 
REMARK    8  A    between atoms: C7_7  and  C9_9 
REMARK    9  A    between atoms: C8_8  and  C10_10 
USER                              x       y       z     vdW  Elec       q    Type
USER                           _______ _______ _______ _____ _____    ______ ____
ROOT
ATOM      1  C1  MOL C   1      29.785  39.400  28.438 -0.40 -0.00    +0.000 C 
ENDROOT
BRANCH   1   2
ATOM      2  C2  MOL C   1      30.540  40.424  29.298 -0.39 -0.00    +0.000 C 
BRANCH   2   3
ATOM      3  C4  MOL C   1      32.064  40.111  29.141 -0.49 -0.00    +0.000 C 
BRANCH   3   4
ATOM      4  C6  MOL C   1      33.014  41.324  29.638 -0.55 -0.00    +0.000 C 
BRANCH   4   5
ATOM      5  C8  MOL C   1      32.508  42.727  29.392 -0.63 +0.00    -0.000 C 
BRANCH   5   6
ATOM      6  C10 MOL C   1      32.066  43.306  30.732 -0.45 +0.00    -0.005 C 
ATOM      7  C12 MOL C   1      30.593  43.340  31.010 -0.41 -0.00    +0.005 C 
ENDBRANCH   5   6
ENDBRANCH   4   5
ENDBRANCH   3   4
ENDBRANCH   2   3
ENDBRANCH   1   2
BRANCH   1   8
ATOM      8  C3  MOL C   1      30.533  39.413  27.045 -0.48 -0.00    +0.000 C 
BRANCH   8   9
ATOM      9  C5  MOL C   1      29.625  40.270  25.969 -0.50 -0.00    +0.000 C 
BRANCH   9  10
ATOM     10  C7  MOL C   1      29.444  39.631  24.542 -0.57 +0.00    -0.000 C 
BRANCH  10  11
ATOM     11  C9  MOL C   1      30.165  40.390  23.374 -0.74 +0.00    -0.005 C 
ATOM     12  C11 MOL C   1      29.248  41.599  22.976 -0.80 -0.00    +0.005 C 
ENDBRANCH  10  11
ENDBRANCH   9  10
ENDBRANCH   8   9
ENDBRANCH   1   8
TORSDOF 9
TER
ENDMDL
MODEL       59
USER    Run = 59
USER    DPF = lac2.dpf
USER  
USER    Estimated Free Energy of Binding    =   -3.43 kcal/mol  [=(1)+(2)+(3)-(4)]
USER    Estimated Inhibition Constant, Ki   =    3.08 mM (millimolar)  [Temperature = 298.15 K]
USER    
USER    (1) Final Intermolecular Energy     =   -5.60 kcal/mol
USER        vdW + Hbond + desolv Energy     =   -5.60 kcal/mol
USER        Electrostatic Energy            =   +0.00 kcal/mol
USER    (2) Final Total Internal Energy     =   -0.80 kcal/mol
USER    (3) Torsional Free Energy           =   +2.68 kcal/mol
USER    (4) Unbound System's Energy         =   -0.29 kcal/mol
USER    
USER    
USER    NEWDPF move PE_ligand.pdbqt
USER    NEWDPF about 3.037000 5.209000 3.149000
USER    NEWDPF tran0 30.977811 42.673499 30.625036
USER    NEWDPF quaternion0 -0.369705 -0.606095 -0.701861 0.057951
USER    NEWDPF axisangle0 -0.370327 -0.607115 -0.703043 173.355631
USER    NEWDPF quat0 -0.370327 -0.607115 -0.703043 173.355631
USER    NEWDPF dihe0 -173.78 -180.00 -164.39 56.48 180.00 103.56 9.75 28.71 49.18 
USER  keepresnum = 1 
USER  
REMARK  9 active torsions:
REMARK  status: ('A' for Active; 'I' for Inactive)
REMARK    1  A    between atoms: C1_1  and  C2_2 
REMARK    2  A    between atoms: C1_1  and  C3_3 
REMARK    3  A    between atoms: C2_2  and  C4_4 
REMARK    4  A    between atoms: C3_3  and  C5_5 
REMARK    5  A    between atoms: C4_4  and  C6_6 
REMARK    6  A    between atoms: C5_5  and  C7_7 
REMARK    7  A    between atoms: C6_6  and  C8_8 
REMARK    8  A    between atoms: C7_7  and  C9_9 
REMARK    9  A    between atoms: C8_8  and  C10_10 
USER                              x       y       z     vdW  Elec       q    Type
USER                           _______ _______ _______ _____ _____    ______ ____
ROOT
ATOM      1  C1  MOL C   1      31.825  43.002  31.354 -0.46 -0.00    +0.000 C 
ENDROOT
BRANCH   1   2
ATOM      2  C2  MOL C   1      30.402  43.573  31.284 -0.42 -0.00    +0.000 C 
BRANCH   2   3
ATOM      3  C4  MOL C   1      29.437  42.447  31.783 -0.35 -0.00    +0.000 C 
BRANCH   3   4
ATOM      4  C6  MOL C   1      27.885  42.741  31.431 -0.45 -0.00    +0.000 C 
BRANCH   4   5
ATOM      5  C8  MOL C   1      27.375  42.206  30.112 -0.44 +0.00    -0.000 C 
BRANCH   5   6
ATOM      6  C10 MOL C   1      28.493  41.386  29.478 -0.38 +0.00    -0.005 C 
ATOM      7  C12 MOL C   1      29.021  41.856  28.155 -0.45 -0.00    +0.005 C 
ENDBRANCH   5   6
ENDBRANCH   4   5
ENDBRANCH   3   4
ENDBRANCH   2   3
ENDBRANCH   1   2
BRANCH   1   8
ATOM      8  C3  MOL C   1      32.469  43.350  29.953 -0.62 -0.00    +0.000 C 
BRANCH   8   9
ATOM      9  C5  MOL C   1      33.053  41.963  29.283 -0.60 -0.00    +0.000 C 
BRANCH   9  10
ATOM     10  C7  MOL C   1      32.122  40.697  29.374 -0.50 +0.00    -0.000 C 
BRANCH  10  11
ATOM     11  C9  MOL C   1      32.609  39.579  30.360 -0.45 +0.01    -0.005 C 
ATOM     12  C11 MOL C   1      33.739  40.209  31.247 -0.47 -0.00    +0.005 C 
ENDBRANCH  10  11
ENDBRANCH   9  10
ENDBRANCH   8   9
ENDBRANCH   1   8
TORSDOF 9
TER
ENDMDL
MODEL       60
USER    Run = 60
USER    DPF = lac2.dpf
USER  
USER    Estimated Free Energy of Binding    =   -3.53 kcal/mol  [=(1)+(2)+(3)-(4)]
USER    Estimated Inhibition Constant, Ki   =    2.60 mM (millimolar)  [Temperature = 298.15 K]
USER    
USER    (1) Final Intermolecular Energy     =   -5.59 kcal/mol
USER        vdW + Hbond + desolv Energy     =   -5.59 kcal/mol
USER        Electrostatic Energy            =   -0.00 kcal/mol
USER    (2) Final Total Internal Energy     =   -0.91 kcal/mol
USER    (3) Torsional Free Energy           =   +2.68 kcal/mol
USER    (4) Unbound System's Energy         =   -0.29 kcal/mol
USER    
USER    
USER    NEWDPF move PE_ligand.pdbqt
USER    NEWDPF about 3.037000 5.209000 3.149000
USER    NEWDPF tran0 30.553373 40.352175 28.989416
USER    NEWDPF quaternion0 0.967057 -0.181567 -0.102816 -0.145820
USER    NEWDPF axisangle0 0.977505 -0.183528 -0.103927 -163.230498
USER    NEWDPF quat0 0.977505 -0.183528 -0.103927 -163.230498
USER    NEWDPF dihe0 -1.44 100.34 -123.71 -30.66 175.08 -23.02 27.84 60.78 20.75 
USER  keepresnum = 1 
USER  
REMARK  9 active torsions:
REMARK  status: ('A' for Active; 'I' for Inactive)
REMARK    1  A    between atoms: C1_1  and  C2_2 
REMARK    2  A    between atoms: C1_1  and  C3_3 
REMARK    3  A    between atoms: C2_2  and  C4_4 
REMARK    4  A    between atoms: C3_3  and  C5_5 
REMARK    5  A    between atoms: C4_4  and  C6_6 
REMARK    6  A    between atoms: C5_5  and  C7_7 
REMARK    7  A    between atoms: C6_6  and  C8_8 
REMARK    8  A    between atoms: C7_7  and  C9_9 
REMARK    9  A    between atoms: C8_8  and  C10_10 
USER                              x       y       z     vdW  Elec       q    Type
USER                           _______ _______ _______ _____ _____    ______ ____
ROOT
ATOM      1  C1  MOL C   1      29.981  39.426  28.575 -0.44 -0.00    +0.000 C 
ENDROOT
BRANCH   1   2
ATOM      2  C2  MOL C   1      31.494  39.677  28.505 -0.48 -0.00    +0.000 C 
BRANCH   2   3
ATOM      3  C4  MOL C   1      31.915  40.295  29.879 -0.45 -0.00    +0.000 C 
BRANCH   3   4
ATOM      4  C6  MOL C   1      33.142  41.342  29.753 -0.53 -0.00    +0.000 C 
BRANCH   4   5
ATOM      5  C8  MOL C   1      32.782  42.772  29.417 -0.66 +0.00    -0.000 C 
BRANCH   5   6
ATOM      6  C10 MOL C   1      31.604  43.176  30.296 -0.49 +0.00    -0.005 C 
ATOM      7  C12 MOL C   1      31.762  43.000  31.777 -0.43 -0.00    +0.005 C 
ENDBRANCH   5   6
ENDBRANCH   4   5
ENDBRANCH   3   4
ENDBRANCH   2   3
ENDBRANCH   1   2
BRANCH   1   8
ATOM      8  C3  MOL C   1      29.338  40.594  27.725 -0.46 -0.00    +0.000 C 
BRANCH   8   9
ATOM      9  C5  MOL C   1      28.933  41.824  28.743 -0.42 -0.00    +0.000 C 
BRANCH   9  10
ATOM     10  C7  MOL C   1      27.558  41.684  29.497 -0.41 +0.00    -0.000 C 
BRANCH  10  11
ATOM     11  C9  MOL C   1      27.374  42.632  30.733 -0.49 +0.00    -0.005 C 
ATOM     12  C11 MOL C   1      28.416  42.184  31.816 -0.33 -0.00    +0.005 C 
ENDBRANCH  10  11
ENDBRANCH   9  10
ENDBRANCH   8   9
ENDBRANCH   1   8
TORSDOF 9
TER
ENDMDL
MODEL       61
USER    Run = 61
USER    DPF = lac2.dpf
USER  
USER    Estimated Free Energy of Binding    =   -3.41 kcal/mol  [=(1)+(2)+(3)-(4)]
USER    Estimated Inhibition Constant, Ki   =    3.18 mM (millimolar)  [Temperature = 298.15 K]
USER    
USER    (1) Final Intermolecular Energy     =   -5.76 kcal/mol
USER        vdW + Hbond + desolv Energy     =   -5.76 kcal/mol
USER        Electrostatic Energy            =   +0.00 kcal/mol
USER    (2) Final Total Internal Energy     =   -0.62 kcal/mol
USER    (3) Torsional Free Energy           =   +2.68 kcal/mol
USER    (4) Unbound System's Energy         =   -0.29 kcal/mol
USER    
USER    
USER    NEWDPF move PE_ligand.pdbqt
USER    NEWDPF about 3.037000 5.209000 3.149000
USER    NEWDPF tran0 32.269335 42.054989 30.616394
USER    NEWDPF quaternion0 0.497684 -0.262310 -0.441828 0.698779
USER    NEWDPF axisangle0 0.695733 -0.366694 -0.617650 91.341767
USER    NEWDPF quat0 0.695733 -0.366694 -0.617650 91.341767
USER    NEWDPF dihe0 -173.67 -101.64 -157.02 177.68 -158.17 -166.59 144.45 16.63 19.62 
USER  keepresnum = 1 
USER  
REMARK  9 active torsions:
REMARK  status: ('A' for Active; 'I' for Inactive)
REMARK    1  A    between atoms: C1_1  and  C2_2 
REMARK    2  A    between atoms: C1_1  and  C3_3 
REMARK    3  A    between atoms: C2_2  and  C4_4 
REMARK    4  A    between atoms: C3_3  and  C5_5 
REMARK    5  A    between atoms: C4_4  and  C6_6 
REMARK    6  A    between atoms: C5_5  and  C7_7 
REMARK    7  A    between atoms: C6_6  and  C8_8 
REMARK    8  A    between atoms: C7_7  and  C9_9 
REMARK    9  A    between atoms: C8_8  and  C10_10 
USER                              x       y       z     vdW  Elec       q    Type
USER                           _______ _______ _______ _____ _____    ______ ____
ROOT
ATOM      1  C1  MOL C   1      31.392  42.820  30.576 -0.46 -0.00    +0.000 C 
ENDROOT
BRANCH   1   2
ATOM      2  C2  MOL C   1      32.674  42.849  29.732 -0.64 -0.00    +0.000 C 
BRANCH   2   3
ATOM      3  C4  MOL C   1      32.996  41.368  29.347 -0.54 -0.00    +0.000 C 
BRANCH   3   4
ATOM      4  C6  MOL C   1      32.511  40.302  30.465 -0.46 -0.00    +0.000 C 
BRANCH   4   5
ATOM      5  C8  MOL C   1      31.380  39.377  30.075 -0.41 +0.00    -0.000 C 
BRANCH   5   6
ATOM      6  C10 MOL C   1      31.178  39.497  28.568 -0.51 +0.00    -0.005 C 
ATOM      7  C12 MOL C   1      29.848  40.002  28.094 -0.46 -0.00    +0.005 C 
ENDBRANCH   5   6
ENDBRANCH   4   5
ENDBRANCH   3   4
ENDBRANCH   2   3
ENDBRANCH   1   2
BRANCH   1   8
ATOM      8  C3  MOL C   1      31.886  42.993  32.068 -0.39 -0.00    +0.000 C 
BRANCH   8   9
ATOM      9  C5  MOL C   1      31.030  41.964  33.028 -0.36 -0.00    +0.000 C 
BRANCH   9  10
ATOM     10  C7  MOL C   1      31.860  41.124  34.068 -0.36 +0.00    -0.000 C 
BRANCH  10  11
ATOM     11  C9  MOL C   1      33.347  41.583  34.263 -0.54 +0.00    -0.005 C 
ATOM     12  C11 MOL C   1      33.358  42.612  35.447 -0.63 -0.00    +0.005 C 
ENDBRANCH  10  11
ENDBRANCH   9  10
ENDBRANCH   8   9
ENDBRANCH   1   8
TORSDOF 9
TER
ENDMDL
MODEL       62
USER    Run = 62
USER    DPF = lac2.dpf
USER  
USER    Estimated Free Energy of Binding    =   -3.60 kcal/mol  [=(1)+(2)+(3)-(4)]
USER    Estimated Inhibition Constant, Ki   =    2.29 mM (millimolar)  [Temperature = 298.15 K]
USER    
USER    (1) Final Intermolecular Energy     =   -5.67 kcal/mol
USER        vdW + Hbond + desolv Energy     =   -5.67 kcal/mol
USER        Electrostatic Energy            =   -0.00 kcal/mol
USER    (2) Final Total Internal Energy     =   -0.91 kcal/mol
USER    (3) Torsional Free Energy           =   +2.68 kcal/mol
USER    (4) Unbound System's Energy         =   -0.29 kcal/mol
USER    
USER    
USER    NEWDPF move PE_ligand.pdbqt
USER    NEWDPF about 3.037000 5.209000 3.149000
USER    NEWDPF tran0 32.285440 41.583268 29.656471
USER    NEWDPF quaternion0 -0.569785 -0.303426 -0.257329 0.719069
USER    NEWDPF axisangle0 -0.819907 -0.436622 -0.370289 88.044698
USER    NEWDPF quat0 -0.819907 -0.436622 -0.370289 88.044698
USER    NEWDPF dihe0 -37.35 92.95 -2.42 113.95 179.26 -162.89 168.92 21.38 30.83 
USER  keepresnum = 1 
USER  
REMARK  9 active torsions:
REMARK  status: ('A' for Active; 'I' for Inactive)
REMARK    1  A    between atoms: C1_1  and  C2_2 
REMARK    2  A    between atoms: C1_1  and  C3_3 
REMARK    3  A    between atoms: C2_2  and  C4_4 
REMARK    4  A    between atoms: C3_3  and  C5_5 
REMARK    5  A    between atoms: C4_4  and  C6_6 
REMARK    6  A    between atoms: C5_5  and  C7_7 
REMARK    7  A    between atoms: C6_6  and  C8_8 
REMARK    8  A    between atoms: C7_7  and  C9_9 
REMARK    9  A    between atoms: C8_8  and  C10_10 
USER                              x       y       z     vdW  Elec       q    Type
USER                           _______ _______ _______ _____ _____    ______ ____
ROOT
ATOM      1  C1  MOL C   1      32.743  41.193  30.654 -0.47 -0.00    +0.000 C 
ENDROOT
BRANCH   1   2
ATOM      2  C2  MOL C   1      33.372  42.211  29.692 -0.64 -0.00    +0.000 C 
BRANCH   2   3
ATOM      3  C4  MOL C   1      32.282  43.296  29.405 -0.62 -0.00    +0.000 C 
BRANCH   3   4
ATOM      4  C6  MOL C   1      30.841  42.931  30.046 -0.37 -0.00    +0.000 C 
BRANCH   4   5
ATOM      5  C8  MOL C   1      30.581  43.420  31.453 -0.43 +0.00    -0.000 C 
BRANCH   5   6
ATOM      6  C10 MOL C   1      29.090  43.267  31.732 -0.44 +0.00    -0.005 C 
ATOM      7  C12 MOL C   1      28.317  42.343  30.839 -0.38 -0.00    +0.005 C 
ENDBRANCH   5   6
ENDBRANCH   4   5
ENDBRANCH   3   4
ENDBRANCH   2   3
ENDBRANCH   1   2
BRANCH   1   8
ATOM      8  C3  MOL C   1      32.640  39.856  29.817 -0.46 -0.00    +0.000 C 
BRANCH   8   9
ATOM      9  C5  MOL C   1      31.138  39.216  30.033 -0.41 -0.00    +0.000 C 
BRANCH   9  10
ATOM     10  C7  MOL C   1      30.429  38.645  28.749 -0.47 +0.00    -0.000 C 
BRANCH  10  11
ATOM     11  C9  MOL C   1      30.374  39.624  27.525 -0.52 +0.00    -0.005 C 
ATOM     12  C11 MOL C   1      29.302  40.719  27.860 -0.47 -0.00    +0.005 C 
ENDBRANCH  10  11
ENDBRANCH   9  10
ENDBRANCH   8   9
ENDBRANCH   1   8
TORSDOF 9
TER
ENDMDL
MODEL       63
USER    Run = 63
USER    DPF = lac2.dpf
USER  
USER    Estimated Free Energy of Binding    =   -3.49 kcal/mol  [=(1)+(2)+(3)-(4)]
USER    Estimated Inhibition Constant, Ki   =    2.79 mM (millimolar)  [Temperature = 298.15 K]
USER    
USER    (1) Final Intermolecular Energy     =   -5.66 kcal/mol
USER        vdW + Hbond + desolv Energy     =   -5.66 kcal/mol
USER        Electrostatic Energy            =   +0.00 kcal/mol
USER    (2) Final Total Internal Energy     =   -0.80 kcal/mol
USER    (3) Torsional Free Energy           =   +2.68 kcal/mol
USER    (4) Unbound System's Energy         =   -0.29 kcal/mol
USER    
USER    
USER    NEWDPF move PE_ligand.pdbqt
USER    NEWDPF about 3.037000 5.209000 3.149000
USER    NEWDPF tran0 31.798808 42.140625 30.441726
USER    NEWDPF quaternion0 -0.390395 -0.903683 -0.161849 0.068941
USER    NEWDPF axisangle0 -0.391326 -0.905839 -0.162235 172.093712
USER    NEWDPF quat0 -0.391326 -0.905839 -0.162235 172.093712
USER    NEWDPF dihe0 -177.32 82.67 -160.05 -113.08 164.38 157.27 -29.85 61.94 45.01 
USER  keepresnum = 1 
USER  
REMARK  9 active torsions:
REMARK  status: ('A' for Active; 'I' for Inactive)
REMARK    1  A    between atoms: C1_1  and  C2_2 
REMARK    2  A    between atoms: C1_1  and  C3_3 
REMARK    3  A    between atoms: C2_2  and  C4_4 
REMARK    4  A    between atoms: C3_3  and  C5_5 
REMARK    5  A    between atoms: C4_4  and  C6_6 
REMARK    6  A    between atoms: C5_5  and  C7_7 
REMARK    7  A    between atoms: C6_6  and  C8_8 
REMARK    8  A    between atoms: C7_7  and  C9_9 
REMARK    9  A    between atoms: C8_8  and  C10_10 
USER                              x       y       z     vdW  Elec       q    Type
USER                           _______ _______ _______ _____ _____    ______ ____
ROOT
ATOM      1  C1  MOL C   1      32.663  42.806  30.033 -0.61 -0.00    +0.000 C 
ENDROOT
BRANCH   1   2
ATOM      2  C2  MOL C   1      31.180  43.189  30.136 -0.43 -0.00    +0.000 C 
BRANCH   2   3
ATOM      3  C4  MOL C   1      30.822  43.211  31.658 -0.43 -0.00    +0.000 C 
BRANCH   3   4
ATOM      4  C6  MOL C   1      29.570  44.178  32.001 -0.52 -0.00    +0.000 C 
BRANCH   4   5
ATOM      5  C8  MOL C   1      28.197  43.670  31.627 -0.48 +0.00    -0.000 C 
BRANCH   5   6
ATOM      6  C10 MOL C   1      28.339  42.212  31.201 -0.36 +0.00    -0.005 C 
ATOM      7  C12 MOL C   1      27.882  41.855  29.818 -0.41 -0.00    +0.005 C 
ENDBRANCH   5   6
ENDBRANCH   4   5
ENDBRANCH   3   4
ENDBRANCH   2   3
ENDBRANCH   1   2
BRANCH   1   8
ATOM      8  C3  MOL C   1      32.699  41.595  29.018 -0.51 -0.00    +0.000 C 
BRANCH   8   9
ATOM      9  C5  MOL C   1      32.617  40.189  29.874 -0.50 -0.00    +0.000 C 
BRANCH   9  10
ATOM     10  C7  MOL C   1      31.195  39.524  29.992 -0.40 +0.00    -0.000 C 
BRANCH  10  11
ATOM     11  C9  MOL C   1      30.752  38.672  28.753 -0.52 +0.00    -0.005 C 
ATOM     12  C11 MOL C   1      30.142  39.667  27.705 -0.49 -0.00    +0.005 C 
ENDBRANCH  10  11
ENDBRANCH   9  10
ENDBRANCH   8   9
ENDBRANCH   1   8
TORSDOF 9
TER
ENDMDL
MODEL       64
USER    Run = 64
USER    DPF = lac2.dpf
USER  
USER    Estimated Free Energy of Binding    =   -3.82 kcal/mol  [=(1)+(2)+(3)-(4)]
USER    Estimated Inhibition Constant, Ki   =    1.58 mM (millimolar)  [Temperature = 298.15 K]
USER    
USER    (1) Final Intermolecular Energy     =   -6.15 kcal/mol
USER        vdW + Hbond + desolv Energy     =   -6.15 kcal/mol
USER        Electrostatic Energy            =   +0.00 kcal/mol
USER    (2) Final Total Internal Energy     =   -0.64 kcal/mol
USER    (3) Torsional Free Energy           =   +2.68 kcal/mol
USER    (4) Unbound System's Energy         =   -0.29 kcal/mol
USER    
USER    
USER    NEWDPF move PE_ligand.pdbqt
USER    NEWDPF about 3.037000 5.209000 3.149000
USER    NEWDPF tran0 28.948587 40.294212 29.549780
USER    NEWDPF quaternion0 -0.436258 0.415797 -0.219275 -0.767275
USER    NEWDPF axisangle0 -0.680251 0.648347 -0.341913 -79.780385
USER    NEWDPF quat0 -0.680251 0.648347 -0.341913 -79.780385
USER    NEWDPF dihe0 136.04 -134.90 -18.93 -96.31 162.76 -23.99 83.95 -89.29 146.34 
USER  keepresnum = 1 
USER  
REMARK  9 active torsions:
REMARK  status: ('A' for Active; 'I' for Inactive)
REMARK    1  A    between atoms: C1_1  and  C2_2 
REMARK    2  A    between atoms: C1_1  and  C3_3 
REMARK    3  A    between atoms: C2_2  and  C4_4 
REMARK    4  A    between atoms: C3_3  and  C5_5 
REMARK    5  A    between atoms: C4_4  and  C6_6 
REMARK    6  A    between atoms: C5_5  and  C7_7 
REMARK    7  A    between atoms: C6_6  and  C8_8 
REMARK    8  A    between atoms: C7_7  and  C9_9 
REMARK    9  A    between atoms: C8_8  and  C10_10 
USER                              x       y       z     vdW  Elec       q    Type
USER                           _______ _______ _______ _____ _____    ______ ____
ROOT
ATOM      1  C1  MOL C   1      29.494  41.199  29.059 -0.39 -0.00    +0.000 C 
ENDROOT
BRANCH   1   2
ATOM      2  C2  MOL C   1      29.924  39.726  29.000 -0.41 -0.00    +0.000 C 
BRANCH   2   3
ATOM      3  C4  MOL C   1      31.004  39.614  27.875 -0.49 -0.00    +0.000 C 
BRANCH   3   4
ATOM      4  C6  MOL C   1      30.374  39.260  26.426 -0.39 -0.00    +0.000 C 
BRANCH   4   5
ATOM      5  C8  MOL C   1      29.624  40.368  25.723 -0.52 +0.00    -0.000 C 
BRANCH   5   6
ATOM      6  C10 MOL C   1      29.768  40.149  24.220 -0.69 +0.00    -0.005 C 
ATOM      7  C12 MOL C   1      29.336  41.267  23.320 -0.82 -0.00    +0.005 C 
ENDBRANCH   5   6
ENDBRANCH   4   5
ENDBRANCH   3   4
ENDBRANCH   2   3
ENDBRANCH   1   2
BRANCH   1   8
ATOM      8  C3  MOL C   1      29.574  41.583  30.591 -0.28 -0.00    +0.000 C 
BRANCH   8   9
ATOM      9  C5  MOL C   1      30.733  42.737  30.784 -0.40 -0.00    +0.000 C 
BRANCH   9  10
ATOM     10  C7  MOL C   1      32.217  42.225  30.910 -0.46 +0.00    -0.000 C 
BRANCH  10  11
ATOM     11  C9  MOL C   1      33.058  42.280  29.587 -0.64 +0.00    -0.005 C 
ATOM     12  C11 MOL C   1      33.071  43.775  29.113 -0.67 -0.00    +0.005 C 
ENDBRANCH  10  11
ENDBRANCH   9  10
ENDBRANCH   8   9
ENDBRANCH   1   8
TORSDOF 9
TER
ENDMDL
MODEL       65
USER    Run = 65
USER    DPF = lac2.dpf
USER  
USER    Estimated Free Energy of Binding    =   -3.45 kcal/mol  [=(1)+(2)+(3)-(4)]
USER    Estimated Inhibition Constant, Ki   =    2.96 mM (millimolar)  [Temperature = 298.15 K]
USER    
USER    (1) Final Intermolecular Energy     =   -5.51 kcal/mol
USER        vdW + Hbond + desolv Energy     =   -5.51 kcal/mol
USER        Electrostatic Energy            =   -0.00 kcal/mol
USER    (2) Final Total Internal Energy     =   -0.91 kcal/mol
USER    (3) Torsional Free Energy           =   +2.68 kcal/mol
USER    (4) Unbound System's Energy         =   -0.29 kcal/mol
USER    
USER    
USER    NEWDPF move PE_ligand.pdbqt
USER    NEWDPF about 3.037000 5.209000 3.149000
USER    NEWDPF tran0 30.457376 42.033730 31.297020
USER    NEWDPF quaternion0 0.048381 0.428848 0.788002 -0.439091
USER    NEWDPF axisangle0 0.053849 0.477324 0.877076 -127.908210
USER    NEWDPF quat0 0.053849 0.477324 0.877076 -127.908210
USER    NEWDPF dihe0 130.31 69.54 83.54 -134.34 135.88 146.52 63.97 66.15 91.83 
USER  keepresnum = 1 
USER  
REMARK  9 active torsions:
REMARK  status: ('A' for Active; 'I' for Inactive)
REMARK    1  A    between atoms: C1_1  and  C2_2 
REMARK    2  A    between atoms: C1_1  and  C3_3 
REMARK    3  A    between atoms: C2_2  and  C4_4 
REMARK    4  A    between atoms: C3_3  and  C5_5 
REMARK    5  A    between atoms: C4_4  and  C6_6 
REMARK    6  A    between atoms: C5_5  and  C7_7 
REMARK    7  A    between atoms: C6_6  and  C8_8 
REMARK    8  A    between atoms: C7_7  and  C9_9 
REMARK    9  A    between atoms: C8_8  and  C10_10 
USER                              x       y       z     vdW  Elec       q    Type
USER                           _______ _______ _______ _____ _____    ______ ____
ROOT
ATOM      1  C1  MOL C   1      30.297  42.218  32.436 -0.35 -0.00    +0.000 C 
ENDROOT
BRANCH   1   2
ATOM      2  C2  MOL C   1      29.812  43.111  31.284 -0.40 -0.00    +0.000 C 
BRANCH   2   3
ATOM      3  C4  MOL C   1      28.253  43.001  31.252 -0.44 -0.00    +0.000 C 
BRANCH   3   4
ATOM      4  C6  MOL C   1      27.699  42.224  29.944 -0.42 -0.00    +0.000 C 
BRANCH   4   5
ATOM      5  C8  MOL C   1      28.390  40.929  29.582 -0.36 +0.00    -0.000 C 
BRANCH   5   6
ATOM      6  C10 MOL C   1      29.235  41.183  28.338 -0.45 +0.00    -0.005 C 
ATOM      7  C12 MOL C   1      29.908  39.998  27.713 -0.47 -0.00    +0.005 C 
ENDBRANCH   5   6
ENDBRANCH   4   5
ENDBRANCH   3   4
ENDBRANCH   2   3
ENDBRANCH   1   2
BRANCH   1   8
ATOM      8  C3  MOL C   1      31.874  42.251  32.336 -0.43 -0.00    +0.000 C 
BRANCH   8   9
ATOM      9  C5  MOL C   1      32.362  41.040  31.330 -0.39 -0.00    +0.000 C 
BRANCH   9  10
ATOM     10  C7  MOL C   1      32.410  41.383  29.795 -0.52 +0.00    -0.000 C 
BRANCH  10  11
ATOM     11  C9  MOL C   1      33.373  42.556  29.402 -0.66 +0.00    -0.005 C 
ATOM     12  C11 MOL C   1      32.497  43.853  29.294 -0.61 -0.00    +0.005 C 
ENDBRANCH  10  11
ENDBRANCH   9  10
ENDBRANCH   8   9
ENDBRANCH   1   8
TORSDOF 9
TER
ENDMDL
MODEL       66
USER    Run = 66
USER    DPF = lac2.dpf
USER  
USER    Estimated Free Energy of Binding    =   -3.55 kcal/mol  [=(1)+(2)+(3)-(4)]
USER    Estimated Inhibition Constant, Ki   =    2.49 mM (millimolar)  [Temperature = 298.15 K]
USER    
USER    (1) Final Intermolecular Energy     =   -5.70 kcal/mol
USER        vdW + Hbond + desolv Energy     =   -5.70 kcal/mol
USER        Electrostatic Energy            =   -0.00 kcal/mol
USER    (2) Final Total Internal Energy     =   -0.83 kcal/mol
USER    (3) Torsional Free Energy           =   +2.68 kcal/mol
USER    (4) Unbound System's Energy         =   -0.29 kcal/mol
USER    
USER    
USER    NEWDPF move PE_ligand.pdbqt
USER    NEWDPF about 3.037000 5.209000 3.149000
USER    NEWDPF tran0 30.434878 39.976337 29.101673
USER    NEWDPF quaternion0 0.995259 0.079403 -0.054695 -0.012734
USER    NEWDPF axisangle0 0.995340 0.079409 -0.054700 -178.540771
USER    NEWDPF quat0 0.995340 0.079409 -0.054700 -178.540771
USER    NEWDPF dihe0 -43.22 24.75 -85.37 38.12 114.83 176.57 -2.44 54.75 38.72 
USER  keepresnum = 1 
USER  
REMARK  9 active torsions:
REMARK  status: ('A' for Active; 'I' for Inactive)
REMARK    1  A    between atoms: C1_1  and  C2_2 
REMARK    2  A    between atoms: C1_1  and  C3_3 
REMARK    3  A    between atoms: C2_2  and  C4_4 
REMARK    4  A    between atoms: C3_3  and  C5_5 
REMARK    5  A    between atoms: C4_4  and  C6_6 
REMARK    6  A    between atoms: C5_5  and  C7_7 
REMARK    7  A    between atoms: C6_6  and  C8_8 
REMARK    8  A    between atoms: C7_7  and  C9_9 
REMARK    9  A    between atoms: C8_8  and  C10_10 
USER                              x       y       z     vdW  Elec       q    Type
USER                           _______ _______ _______ _____ _____    ______ ____
ROOT
ATOM      1  C1  MOL C   1      30.387  39.068  28.374 -0.50 -0.00    +0.000 C 
ENDROOT
BRANCH   1   2
ATOM      2  C2  MOL C   1      31.582  40.006  28.593 -0.46 -0.00    +0.000 C 
BRANCH   2   3
ATOM      3  C4  MOL C   1      31.947  39.928  30.112 -0.44 -0.00    +0.000 C 
BRANCH   3   4
ATOM      4  C6  MOL C   1      33.165  40.912  30.522 -0.50 -0.00    +0.000 C 
BRANCH   4   5
ATOM      5  C8  MOL C   1      33.377  42.129  29.651 -0.63 +0.00    -0.000 C 
BRANCH   5   6
ATOM      6  C10 MOL C   1      32.427  43.220  30.134 -0.59 +0.00    -0.005 C 
ATOM      7  C12 MOL C   1      31.747  43.002  31.453 -0.45 -0.00    +0.005 C 
ENDBRANCH   5   6
ENDBRANCH   4   5
ENDBRANCH   3   4
ENDBRANCH   2   3
ENDBRANCH   1   2
BRANCH   1   8
ATOM      8  C3  MOL C   1      29.247  39.994  27.789 -0.43 -0.00    +0.000 C 
BRANCH   8   9
ATOM      9  C5  MOL C   1      28.206  40.379  29.006 -0.38 -0.00    +0.000 C 
BRANCH   9  10
ATOM     10  C7  MOL C   1      28.101  41.905  29.381 -0.41 +0.00    -0.000 C 
BRANCH  10  11
ATOM     11  C9  MOL C   1      28.306  42.234  30.901 -0.37 +0.00    -0.005 C 
ATOM     12  C11 MOL C   1      27.296  43.378  31.263 -0.55 -0.00    +0.005 C 
ENDBRANCH  10  11
ENDBRANCH   9  10
ENDBRANCH   8   9
ENDBRANCH   1   8
TORSDOF 9
TER
ENDMDL
MODEL       67
USER    Run = 67
USER    DPF = lac2.dpf
USER  
USER    Estimated Free Energy of Binding    =   -4.12 kcal/mol  [=(1)+(2)+(3)-(4)]
USER    Estimated Inhibition Constant, Ki   =  947.46 uM (micromolar)  [Temperature = 298.15 K]
USER    
USER    (1) Final Intermolecular Energy     =   -6.54 kcal/mol
USER        vdW + Hbond + desolv Energy     =   -6.53 kcal/mol
USER        Electrostatic Energy            =   -0.00 kcal/mol
USER    (2) Final Total Internal Energy     =   -0.56 kcal/mol
USER    (3) Torsional Free Energy           =   +2.68 kcal/mol
USER    (4) Unbound System's Energy         =   -0.29 kcal/mol
USER    
USER    
USER    NEWDPF move PE_ligand.pdbqt
USER    NEWDPF about 3.037000 5.209000 3.149000
USER    NEWDPF tran0 28.995787 41.199128 23.380398
USER    NEWDPF quaternion0 0.044822 0.365908 -0.713098 -0.596317
USER    NEWDPF axisangle0 0.055836 0.455819 -0.888320 -106.786801
USER    NEWDPF quat0 0.055836 0.455819 -0.888320 -106.786801
USER    NEWDPF dihe0 143.73 92.86 52.34 51.55 120.31 -107.99 25.88 -120.19 -22.12 
USER  keepresnum = 1 
USER  
REMARK  9 active torsions:
REMARK  status: ('A' for Active; 'I' for Inactive)
REMARK    1  A    between atoms: C1_1  and  C2_2 
REMARK    2  A    between atoms: C1_1  and  C3_3 
REMARK    3  A    between atoms: C2_2  and  C4_4 
REMARK    4  A    between atoms: C3_3  and  C5_5 
REMARK    5  A    between atoms: C4_4  and  C6_6 
REMARK    6  A    between atoms: C5_5  and  C7_7 
REMARK    7  A    between atoms: C6_6  and  C8_8 
REMARK    8  A    between atoms: C7_7  and  C9_9 
REMARK    9  A    between atoms: C8_8  and  C10_10 
USER                              x       y       z     vdW  Elec       q    Type
USER                           _______ _______ _______ _____ _____    ______ ____
ROOT
ATOM      1  C1  MOL C   1      30.084  40.833  23.577 -0.74 -0.00    +0.000 C 
ENDROOT
BRANCH   1   2
ATOM      2  C2  MOL C   1      28.928  40.006  22.997 -0.57 -0.00    +0.000 C 
BRANCH   2   3
ATOM      3  C4  MOL C   1      27.666  40.929  22.996 -0.53 -0.00    +0.000 C 
BRANCH   3   4
ATOM      4  C6  MOL C   1      26.282  40.111  23.184 -0.48 -0.00    +0.000 C 
BRANCH   4   5
ATOM      5  C8  MOL C   1      26.348  38.846  24.009 -0.57 +0.00    -0.000 C 
BRANCH   5   6
ATOM      6  C10 MOL C   1      25.498  37.789  23.312 -0.64 +0.00    -0.005 C 
ATOM      7  C12 MOL C   1      25.047  36.621  24.136 -0.72 -0.00    +0.005 C 
ENDBRANCH   5   6
ENDBRANCH   4   5
ENDBRANCH   3   4
ENDBRANCH   2   3
ENDBRANCH   1   2
BRANCH   1   8
ATOM      8  C3  MOL C   1      29.616  41.212  25.039 -0.44 -0.00    +0.000 C 
BRANCH   8   9
ATOM      9  C5  MOL C   1      29.996  39.969  26.051 -0.46 -0.00    +0.000 C 
BRANCH   9  10
ATOM     10  C7  MOL C   1      29.350  40.012  27.485 -0.45 +0.00    -0.000 C 
BRANCH  10  11
ATOM     11  C9  MOL C   1      30.361  40.205  28.668 -0.44 +0.00    -0.005 C 
ATOM     12  C11 MOL C   1      31.122  38.844  28.849 -0.49 -0.00    +0.005 C 
ENDBRANCH  10  11
ENDBRANCH   9  10
ENDBRANCH   8   9
ENDBRANCH   1   8
TORSDOF 9
TER
ENDMDL
MODEL       68
USER    Run = 68
USER    DPF = lac2.dpf
USER  
USER    Estimated Free Energy of Binding    =   -3.56 kcal/mol  [=(1)+(2)+(3)-(4)]
USER    Estimated Inhibition Constant, Ki   =    2.48 mM (millimolar)  [Temperature = 298.15 K]
USER    
USER    (1) Final Intermolecular Energy     =   -5.78 kcal/mol
USER        vdW + Hbond + desolv Energy     =   -5.78 kcal/mol
USER        Electrostatic Energy            =   +0.00 kcal/mol
USER    (2) Final Total Internal Energy     =   -0.74 kcal/mol
USER    (3) Torsional Free Energy           =   +2.68 kcal/mol
USER    (4) Unbound System's Energy         =   -0.29 kcal/mol
USER    
USER    
USER    NEWDPF move PE_ligand.pdbqt
USER    NEWDPF about 3.037000 5.209000 3.149000
USER    NEWDPF tran0 29.263980 41.062033 29.052169
USER    NEWDPF quaternion0 0.761252 -0.002387 -0.463542 -0.453451
USER    NEWDPF axisangle0 0.854110 -0.002678 -0.520085 -126.069341
USER    NEWDPF quat0 0.854110 -0.002678 -0.520085 -126.069341
USER    NEWDPF dihe0 85.90 -84.45 27.15 -97.89 96.02 -10.11 90.78 63.43 105.35 
USER  keepresnum = 1 
USER  
REMARK  9 active torsions:
REMARK  status: ('A' for Active; 'I' for Inactive)
REMARK    1  A    between atoms: C1_1  and  C2_2 
REMARK    2  A    between atoms: C1_1  and  C3_3 
REMARK    3  A    between atoms: C2_2  and  C4_4 
REMARK    4  A    between atoms: C3_3  and  C5_5 
REMARK    5  A    between atoms: C4_4  and  C6_6 
REMARK    6  A    between atoms: C5_5  and  C7_7 
REMARK    7  A    between atoms: C6_6  and  C8_8 
REMARK    8  A    between atoms: C7_7  and  C9_9 
REMARK    9  A    between atoms: C8_8  and  C10_10 
USER                              x       y       z     vdW  Elec       q    Type
USER                           _______ _______ _______ _____ _____    ______ ____
ROOT
ATOM      1  C1  MOL C   1      29.030  40.070  29.616 -0.32 -0.00    +0.000 C 
ENDROOT
BRANCH   1   2
ATOM      2  C2  MOL C   1      29.731  40.210  28.257 -0.45 -0.00    +0.000 C 
BRANCH   2   3
ATOM      3  C4  MOL C   1      31.102  39.467  28.375 -0.53 -0.00    +0.000 C 
BRANCH   3   4
ATOM      4  C6  MOL C   1      32.268  40.388  29.016 -0.49 -0.00    +0.000 C 
BRANCH   4   5
ATOM      5  C8  MOL C   1      31.851  41.743  29.543 -0.49 +0.00    -0.000 C 
BRANCH   5   6
ATOM      6  C10 MOL C   1      33.110  42.586  29.713 -0.65 +0.00    -0.005 C 
ATOM      7  C12 MOL C   1      33.015  44.039  29.355 -0.67 -0.00    +0.005 C 
ENDBRANCH   5   6
ENDBRANCH   4   5
ENDBRANCH   3   4
ENDBRANCH   2   3
ENDBRANCH   1   2
BRANCH   1   8
ATOM      8  C3  MOL C   1      27.576  40.643  29.382 -0.39 -0.00    +0.000 C 
BRANCH   8   9
ATOM      9  C5  MOL C   1      27.579  42.250  29.748 -0.40 -0.00    +0.000 C 
BRANCH   9  10
ATOM     10  C7  MOL C   1      27.743  42.620  31.269 -0.45 +0.00    -0.000 C 
BRANCH  10  11
ATOM     11  C9  MOL C   1      29.204  42.967  31.719 -0.41 +0.00    -0.005 C 
ATOM     12  C11 MOL C   1      29.246  44.510  31.998 -0.53 -0.00    +0.005 C 
ENDBRANCH  10  11
ENDBRANCH   9  10
ENDBRANCH   8   9
ENDBRANCH   1   8
TORSDOF 9
TER
ENDMDL
MODEL       69
USER    Run = 69
USER    DPF = lac2.dpf
USER  
USER    Estimated Free Energy of Binding    =   -3.39 kcal/mol  [=(1)+(2)+(3)-(4)]
USER    Estimated Inhibition Constant, Ki   =    3.27 mM (millimolar)  [Temperature = 298.15 K]
USER    
USER    (1) Final Intermolecular Energy     =   -5.53 kcal/mol
USER        vdW + Hbond + desolv Energy     =   -5.53 kcal/mol
USER        Electrostatic Energy            =   +0.00 kcal/mol
USER    (2) Final Total Internal Energy     =   -0.83 kcal/mol
USER    (3) Torsional Free Energy           =   +2.68 kcal/mol
USER    (4) Unbound System's Energy         =   -0.29 kcal/mol
USER    
USER    
USER    NEWDPF move PE_ligand.pdbqt
USER    NEWDPF about 3.037000 5.209000 3.149000
USER    NEWDPF tran0 30.329295 40.291482 29.451064
USER    NEWDPF quaternion0 -0.914691 -0.032400 0.380476 0.132395
USER    NEWDPF axisangle0 -0.922815 -0.032688 0.383855 164.783935
USER    NEWDPF quat0 -0.922815 -0.032688 0.383855 164.783935
USER    NEWDPF dihe0 167.29 -166.01 -151.56 -4.70 -3.59 -121.87 123.15 67.49 49.77 
USER  keepresnum = 1 
USER  
REMARK  9 active torsions:
REMARK  status: ('A' for Active; 'I' for Inactive)
REMARK    1  A    between atoms: C1_1  and  C2_2 
REMARK    2  A    between atoms: C1_1  and  C3_3 
REMARK    3  A    between atoms: C2_2  and  C4_4 
REMARK    4  A    between atoms: C3_3  and  C5_5 
REMARK    5  A    between atoms: C4_4  and  C6_6 
REMARK    6  A    between atoms: C5_5  and  C7_7 
REMARK    7  A    between atoms: C6_6  and  C8_8 
REMARK    8  A    between atoms: C7_7  and  C9_9 
REMARK    9  A    between atoms: C8_8  and  C10_10 
USER                              x       y       z     vdW  Elec       q    Type
USER                           _______ _______ _______ _____ _____    ______ ____
ROOT
ATOM      1  C1  MOL C   1      29.871  39.249  29.206 -0.39 -0.00    +0.000 C 
ENDROOT
BRANCH   1   2
ATOM      2  C2  MOL C   1      30.931  40.001  28.388 -0.46 -0.00    +0.000 C 
BRANCH   2   3
ATOM      3  C4  MOL C   1      32.243  40.000  29.239 -0.48 -0.00    +0.000 C 
BRANCH   3   4
ATOM      4  C6  MOL C   1      32.021  40.546  30.747 -0.39 -0.00    +0.000 C 
BRANCH   4   5
ATOM      5  C8  MOL C   1      32.265  42.020  30.978 -0.44 +0.00    -0.000 C 
BRANCH   5   6
ATOM      6  C10 MOL C   1      32.243  42.715  29.622 -0.58 +0.00    -0.005 C 
ATOM      7  C12 MOL C   1      33.297  43.750  29.365 -0.71 -0.00    +0.005 C 
ENDBRANCH   5   6
ENDBRANCH   4   5
ENDBRANCH   3   4
ENDBRANCH   2   3
ENDBRANCH   1   2
BRANCH   1   8
ATOM      8  C3  MOL C   1      28.588  40.172  29.151 -0.36 -0.00    +0.000 C 
BRANCH   8   9
ATOM      9  C5  MOL C   1      28.671  41.260  30.386 -0.30 -0.00    +0.000 C 
BRANCH   9  10
ATOM     10  C7  MOL C   1      27.493  42.300  30.482 -0.45 +0.00    -0.000 C 
BRANCH  10  11
ATOM     11  C9  MOL C   1      27.713  43.464  31.510 -0.50 +0.00    -0.005 C 
ATOM     12  C11 MOL C   1      29.261  43.680  31.637 -0.46 -0.00    +0.005 C 
ENDBRANCH  10  11
ENDBRANCH   9  10
ENDBRANCH   8   9
ENDBRANCH   1   8
TORSDOF 9
TER
ENDMDL
MODEL       70
USER    Run = 70
USER    DPF = lac2.dpf
USER  
USER    Estimated Free Energy of Binding    =   -3.28 kcal/mol  [=(1)+(2)+(3)-(4)]
USER    Estimated Inhibition Constant, Ki   =    3.93 mM (millimolar)  [Temperature = 298.15 K]
USER    
USER    (1) Final Intermolecular Energy     =   -5.36 kcal/mol
USER        vdW + Hbond + desolv Energy     =   -5.36 kcal/mol
USER        Electrostatic Energy            =   -0.01 kcal/mol
USER    (2) Final Total Internal Energy     =   -0.89 kcal/mol
USER    (3) Torsional Free Energy           =   +2.68 kcal/mol
USER    (4) Unbound System's Energy         =   -0.29 kcal/mol
USER    
USER    
USER    NEWDPF move PE_ligand.pdbqt
USER    NEWDPF about 3.037000 5.209000 3.149000
USER    NEWDPF tran0 30.440456 42.463066 30.266886
USER    NEWDPF quaternion0 0.088492 -0.192403 0.455746 -0.864550
USER    NEWDPF axisangle0 0.176087 -0.382855 0.906871 -60.337339
USER    NEWDPF quat0 0.176087 -0.382855 0.906871 -60.337339
USER    NEWDPF dihe0 124.96 -153.60 147.82 -112.90 174.83 126.45 25.59 21.93 11.95 
USER  keepresnum = 1 
USER  
REMARK  9 active torsions:
REMARK  status: ('A' for Active; 'I' for Inactive)
REMARK    1  A    between atoms: C1_1  and  C2_2 
REMARK    2  A    between atoms: C1_1  and  C3_3 
REMARK    3  A    between atoms: C2_2  and  C4_4 
REMARK    4  A    between atoms: C3_3  and  C5_5 
REMARK    5  A    between atoms: C4_4  and  C6_6 
REMARK    6  A    between atoms: C5_5  and  C7_7 
REMARK    7  A    between atoms: C6_6  and  C8_8 
REMARK    8  A    between atoms: C7_7  and  C9_9 
REMARK    9  A    between atoms: C8_8  and  C10_10 
USER                              x       y       z     vdW  Elec       q    Type
USER                           _______ _______ _______ _____ _____    ______ ____
ROOT
ATOM      1  C1  MOL C   1      29.473  42.631  30.893 -0.34 -0.00    +0.000 C 
ENDROOT
BRANCH   1   2
ATOM      2  C2  MOL C   1      30.831  43.315  31.102 -0.43 -0.00    +0.000 C 
BRANCH   2   3
ATOM      3  C4  MOL C   1      31.498  43.437  29.693 -0.47 -0.00    +0.000 C 
BRANCH   3   4
ATOM      4  C6  MOL C   1      33.115  43.386  29.751 -0.69 -0.00    +0.000 C 
BRANCH   4   5
ATOM      5  C8  MOL C   1      33.751  42.014  29.749 -0.51 +0.00    -0.000 C 
BRANCH   5   6
ATOM      6  C10 MOL C   1      32.948  41.126  30.693 -0.48 +0.00    -0.005 C 
ATOM      7  C12 MOL C   1      33.410  39.709  30.860 -0.46 -0.01    +0.005 C 
ENDBRANCH   5   6
ENDBRANCH   4   5
ENDBRANCH   3   4
ENDBRANCH   2   3
ENDBRANCH   1   2
BRANCH   1   8
ATOM      8  C3  MOL C   1      29.749  41.096  31.154 -0.24 -0.00    +0.000 C 
BRANCH   8   9
ATOM      9  C5  MOL C   1      29.059  40.224  29.939 -0.30 -0.00    +0.000 C 
BRANCH   9  10
ATOM     10  C7  MOL C   1      29.685  40.403  28.506 -0.43 +0.00    -0.000 C 
BRANCH  10  11
ATOM     11  C9  MOL C   1      30.978  39.558  28.231 -0.52 +0.00    -0.005 C 
ATOM     12  C11 MOL C   1      30.754  38.151  28.887 -0.49 -0.00    +0.005 C 
ENDBRANCH  10  11
ENDBRANCH   9  10
ENDBRANCH   8   9
ENDBRANCH   1   8
TORSDOF 9
TER
ENDMDL
MODEL       71
USER    Run = 71
USER    DPF = lac2.dpf
USER  
USER    Estimated Free Energy of Binding    =   -4.14 kcal/mol  [=(1)+(2)+(3)-(4)]
USER    Estimated Inhibition Constant, Ki   =  916.08 uM (micromolar)  [Temperature = 298.15 K]
USER    
USER    (1) Final Intermolecular Energy     =   -6.63 kcal/mol
USER        vdW + Hbond + desolv Energy     =   -6.63 kcal/mol
USER        Electrostatic Energy            =   +0.00 kcal/mol
USER    (2) Final Total Internal Energy     =   -0.48 kcal/mol
USER    (3) Torsional Free Energy           =   +2.68 kcal/mol
USER    (4) Unbound System's Energy         =   -0.29 kcal/mol
USER    
USER    
USER    NEWDPF move PE_ligand.pdbqt
USER    NEWDPF about 3.037000 5.209000 3.149000
USER    NEWDPF tran0 30.799919 40.243571 27.677887
USER    NEWDPF quaternion0 -0.295673 -0.385659 0.869929 -0.084066
USER    NEWDPF axisangle0 -0.296724 -0.387029 0.873020 -170.355346
USER    NEWDPF quat0 -0.296724 -0.387029 0.873020 -170.355346
USER    NEWDPF dihe0 -121.09 -40.37 171.30 37.88 -80.36 168.51 179.94 53.77 85.76 
USER  keepresnum = 1 
USER  
REMARK  9 active torsions:
REMARK  status: ('A' for Active; 'I' for Inactive)
REMARK    1  A    between atoms: C1_1  and  C2_2 
REMARK    2  A    between atoms: C1_1  and  C3_3 
REMARK    3  A    between atoms: C2_2  and  C4_4 
REMARK    4  A    between atoms: C3_3  and  C5_5 
REMARK    5  A    between atoms: C4_4  and  C6_6 
REMARK    6  A    between atoms: C5_5  and  C7_7 
REMARK    7  A    between atoms: C6_6  and  C8_8 
REMARK    8  A    between atoms: C7_7  and  C9_9 
REMARK    9  A    between atoms: C8_8  and  C10_10 
USER                              x       y       z     vdW  Elec       q    Type
USER                           _______ _______ _______ _____ _____    ______ ____
ROOT
ATOM      1  C1  MOL C   1      30.520  39.127  27.495 -0.51 -0.00    +0.000 C 
ENDROOT
BRANCH   1   2
ATOM      2  C2  MOL C   1      29.628  40.351  27.241 -0.46 -0.00    +0.000 C 
BRANCH   2   3
ATOM      3  C4  MOL C   1      29.586  40.567  25.693 -0.44 -0.00    +0.000 C 
BRANCH   3   4
ATOM      4  C6  MOL C   1      30.365  39.411  24.870 -0.45 -0.00    +0.000 C 
BRANCH   4   5
ATOM      5  C8  MOL C   1      30.584  39.658  23.395 -0.65 +0.00    -0.000 C 
BRANCH   5   6
ATOM      6  C10 MOL C   1      29.592  40.727  22.948 -0.78 +0.00    -0.005 C 
ATOM      7  C12 MOL C   1      28.136  40.373  22.998 -0.67 -0.00    +0.005 C 
ENDBRANCH   5   6
ENDBRANCH   4   5
ENDBRANCH   3   4
ENDBRANCH   2   3
ENDBRANCH   1   2
BRANCH   1   8
ATOM      8  C3  MOL C   1      30.777  39.131  29.055 -0.48 -0.00    +0.000 C 
BRANCH   8   9
ATOM      9  C5  MOL C   1      32.278  39.749  29.339 -0.44 -0.00    +0.000 C 
BRANCH   9  10
ATOM     10  C7  MOL C   1      32.334  41.180  29.992 -0.49 +0.00    -0.000 C 
BRANCH  10  11
ATOM     11  C9  MOL C   1      33.226  42.225  29.237 -0.61 +0.00    -0.005 C 
ATOM     12  C11 MOL C   1      32.646  43.646  29.561 -0.65 -0.00    +0.005 C 
ENDBRANCH  10  11
ENDBRANCH   9  10
ENDBRANCH   8   9
ENDBRANCH   1   8
TORSDOF 9
TER
ENDMDL
MODEL       72
USER    Run = 72
USER    DPF = lac2.dpf
USER  
USER    Estimated Free Energy of Binding    =   -3.44 kcal/mol  [=(1)+(2)+(3)-(4)]
USER    Estimated Inhibition Constant, Ki   =    3.00 mM (millimolar)  [Temperature = 298.15 K]
USER    
USER    (1) Final Intermolecular Energy     =   -5.53 kcal/mol
USER        vdW + Hbond + desolv Energy     =   -5.53 kcal/mol
USER        Electrostatic Energy            =   +0.00 kcal/mol
USER    (2) Final Total Internal Energy     =   -0.89 kcal/mol
USER    (3) Torsional Free Energy           =   +2.68 kcal/mol
USER    (4) Unbound System's Energy         =   -0.29 kcal/mol
USER    
USER    
USER    NEWDPF move PE_ligand.pdbqt
USER    NEWDPF about 3.037000 5.209000 3.149000
USER    NEWDPF tran0 30.031309 40.594070 29.217912
USER    NEWDPF quaternion0 -0.215224 0.612241 -0.760640 -0.016314
USER    NEWDPF axisangle0 -0.215253 0.612323 -0.760741 -178.130482
USER    NEWDPF quat0 -0.215253 0.612323 -0.760741 -178.130482
USER    NEWDPF dihe0 133.24 -169.67 153.92 25.17 -173.30 -168.70 9.34 40.16 50.74 
USER  keepresnum = 1 
USER  
REMARK  9 active torsions:
REMARK  status: ('A' for Active; 'I' for Inactive)
REMARK    1  A    between atoms: C1_1  and  C2_2 
REMARK    2  A    between atoms: C1_1  and  C3_3 
REMARK    3  A    between atoms: C2_2  and  C4_4 
REMARK    4  A    between atoms: C3_3  and  C5_5 
REMARK    5  A    between atoms: C4_4  and  C6_6 
REMARK    6  A    between atoms: C5_5  and  C7_7 
REMARK    7  A    between atoms: C6_6  and  C8_8 
REMARK    8  A    between atoms: C7_7  and  C9_9 
REMARK    9  A    between atoms: C8_8  and  C10_10 
USER                              x       y       z     vdW  Elec       q    Type
USER                           _______ _______ _______ _____ _____    ______ ____
ROOT
ATOM      1  C1  MOL C   1      30.184  39.705  28.481 -0.47 -0.00    +0.000 C 
ENDROOT
BRANCH   1   2
ATOM      2  C2  MOL C   1      29.053  39.862  29.507 -0.33 -0.00    +0.000 C 
BRANCH   2   3
ATOM      3  C4  MOL C   1      28.132  41.017  28.992 -0.41 -0.00    +0.000 C 
BRANCH   3   4
ATOM      4  C6  MOL C   1      27.102  41.556  30.118 -0.41 -0.00    +0.000 C 
BRANCH   4   5
ATOM      5  C8  MOL C   1      27.514  42.797  30.877 -0.49 +0.00    -0.000 C 
BRANCH   5   6
ATOM      6  C10 MOL C   1      29.021  42.730  31.098 -0.35 +0.00    -0.005 C 
ATOM      7  C12 MOL C   1      29.627  43.756  32.008 -0.50 -0.00    +0.005 C 
ENDBRANCH   5   6
ENDBRANCH   4   5
ENDBRANCH   3   4
ENDBRANCH   2   3
ENDBRANCH   1   2
BRANCH   1   8
ATOM      8  C3  MOL C   1      31.505  39.622  29.346 -0.48 -0.00    +0.000 C 
BRANCH   8   9
ATOM      9  C5  MOL C   1      32.433  40.943  29.017 -0.48 -0.00    +0.000 C 
BRANCH   9  10
ATOM     10  C7  MOL C   1      33.001  41.726  30.258 -0.54 +0.00    -0.000 C 
BRANCH  10  11
ATOM     11  C9  MOL C   1      32.995  43.288  30.123 -0.61 +0.00    -0.005 C 
ATOM     12  C11 MOL C   1      31.889  43.654  29.072 -0.45 -0.00    +0.005 C 
ENDBRANCH  10  11
ENDBRANCH   9  10
ENDBRANCH   8   9
ENDBRANCH   1   8
TORSDOF 9
TER
ENDMDL
MODEL       73
USER    Run = 73
USER    DPF = lac2.dpf
USER  
USER    Estimated Free Energy of Binding    =   -3.59 kcal/mol  [=(1)+(2)+(3)-(4)]
USER    Estimated Inhibition Constant, Ki   =    2.34 mM (millimolar)  [Temperature = 298.15 K]
USER    
USER    (1) Final Intermolecular Energy     =   -5.66 kcal/mol
USER        vdW + Hbond + desolv Energy     =   -5.66 kcal/mol
USER        Electrostatic Energy            =   -0.00 kcal/mol
USER    (2) Final Total Internal Energy     =   -0.90 kcal/mol
USER    (3) Torsional Free Energy           =   +2.68 kcal/mol
USER    (4) Unbound System's Energy         =   -0.29 kcal/mol
USER    
USER    
USER    NEWDPF move PE_ligand.pdbqt
USER    NEWDPF about 3.037000 5.209000 3.149000
USER    NEWDPF tran0 31.026493 38.839540 30.895043
USER    NEWDPF quaternion0 -0.846667 -0.515301 -0.110327 -0.073809
USER    NEWDPF axisangle0 -0.848983 -0.516710 -0.110629 -171.534384
USER    NEWDPF quat0 -0.848983 -0.516710 -0.110629 -171.534384
USER    NEWDPF dihe0 -166.57 82.82 168.32 -110.08 180.00 -83.69 -83.31 -123.69 147.11 
USER  keepresnum = 1 
USER  
REMARK  9 active torsions:
REMARK  status: ('A' for Active; 'I' for Inactive)
REMARK    1  A    between atoms: C1_1  and  C2_2 
REMARK    2  A    between atoms: C1_1  and  C3_3 
REMARK    3  A    between atoms: C2_2  and  C4_4 
REMARK    4  A    between atoms: C3_3  and  C5_5 
REMARK    5  A    between atoms: C4_4  and  C6_6 
REMARK    6  A    between atoms: C5_5  and  C7_7 
REMARK    7  A    between atoms: C6_6  and  C8_8 
REMARK    8  A    between atoms: C7_7  and  C9_9 
REMARK    9  A    between atoms: C8_8  and  C10_10 
USER                              x       y       z     vdW  Elec       q    Type
USER                           _______ _______ _______ _____ _____    ______ ____
ROOT
ATOM      1  C1  MOL C   1      31.842  38.526  30.124 -0.35 -0.00    +0.000 C 
ENDROOT
BRANCH   1   2
ATOM      2  C2  MOL C   1      31.725  39.881  30.837 -0.35 -0.00    +0.000 C 
BRANCH   2   3
ATOM      3  C4  MOL C   1      33.079  40.631  30.608 -0.49 -0.00    +0.000 C 
BRANCH   3   4
ATOM      4  C6  MOL C   1      32.990  41.757  29.449 -0.60 -0.00    +0.000 C 
BRANCH   4   5
ATOM      5  C8  MOL C   1      32.612  43.154  29.887 -0.64 +0.00    -0.000 C 
BRANCH   5   6
ATOM      6  C10 MOL C   1      31.874  43.042  31.216 -0.45 +0.00    -0.005 C 
ATOM      7  C12 MOL C   1      30.410  43.365  31.216 -0.43 -0.00    +0.005 C 
ENDBRANCH   5   6
ENDBRANCH   4   5
ENDBRANCH   3   4
ENDBRANCH   2   3
ENDBRANCH   1   2
BRANCH   1   8
ATOM      8  C3  MOL C   1      30.529  38.415  29.250 -0.46 -0.00    +0.000 C 
BRANCH   8   9
ATOM      9  C5  MOL C   1      30.751  39.271  27.859 -0.56 -0.00    +0.000 C 
BRANCH   9  10
ATOM     10  C7  MOL C   1      29.496  40.043  27.305 -0.47 +0.00    -0.000 C 
BRANCH  10  11
ATOM     11  C9  MOL C   1      29.251  41.459  27.935 -0.47 +0.00    -0.005 C 
ATOM     12  C11 MOL C   1      28.464  41.237  29.274 -0.39 -0.00    +0.005 C 
ENDBRANCH  10  11
ENDBRANCH   9  10
ENDBRANCH   8   9
ENDBRANCH   1   8
TORSDOF 9
TER
ENDMDL
MODEL       74
USER    Run = 74
USER    DPF = lac2.dpf
USER  
USER    Estimated Free Energy of Binding    =   -3.94 kcal/mol  [=(1)+(2)+(3)-(4)]
USER    Estimated Inhibition Constant, Ki   =    1.30 mM (millimolar)  [Temperature = 298.15 K]
USER    
USER    (1) Final Intermolecular Energy     =   -6.32 kcal/mol
USER        vdW + Hbond + desolv Energy     =   -6.33 kcal/mol
USER        Electrostatic Energy            =   +0.00 kcal/mol
USER    (2) Final Total Internal Energy     =   -0.58 kcal/mol
USER    (3) Torsional Free Energy           =   +2.68 kcal/mol
USER    (4) Unbound System's Energy         =   -0.29 kcal/mol
USER    
USER    
USER    NEWDPF move PE_ligand.pdbqt
USER    NEWDPF about 3.037000 5.209000 3.149000
USER    NEWDPF tran0 29.907725 38.386787 27.929536
USER    NEWDPF quaternion0 0.689274 0.128703 0.512278 0.495891
USER    NEWDPF axisangle0 0.793743 0.148210 0.589920 120.542910
USER    NEWDPF quat0 0.793743 0.148210 0.589920 120.542910
USER    NEWDPF dihe0 147.05 -93.14 -159.01 -71.97 -132.15 -63.73 65.95 14.76 -126.95 
USER  keepresnum = 1 
USER  
REMARK  9 active torsions:
REMARK  status: ('A' for Active; 'I' for Inactive)
REMARK    1  A    between atoms: C1_1  and  C2_2 
REMARK    2  A    between atoms: C1_1  and  C3_3 
REMARK    3  A    between atoms: C2_2  and  C4_4 
REMARK    4  A    between atoms: C3_3  and  C5_5 
REMARK    5  A    between atoms: C4_4  and  C6_6 
REMARK    6  A    between atoms: C5_5  and  C7_7 
REMARK    7  A    between atoms: C6_6  and  C8_8 
REMARK    8  A    between atoms: C7_7  and  C9_9 
REMARK    9  A    between atoms: C8_8  and  C10_10 
USER                              x       y       z     vdW  Elec       q    Type
USER                           _______ _______ _______ _____ _____    ______ ____
ROOT
ATOM      1  C1  MOL C   1      30.900  38.625  27.367 -0.46 -0.00    +0.000 C 
ENDROOT
BRANCH   1   2
ATOM      2  C2  MOL C   1      30.753  38.237  28.846 -0.50 -0.00    +0.000 C 
BRANCH   2   3
ATOM      3  C4  MOL C   1      31.021  39.531  29.682 -0.42 -0.00    +0.000 C 
BRANCH   3   4
ATOM      4  C6  MOL C   1      32.421  39.483  30.492 -0.44 -0.00    +0.000 C 
BRANCH   4   5
ATOM      5  C8  MOL C   1      33.243  40.752  30.503 -0.50 +0.00    -0.000 C 
BRANCH   5   6
ATOM      6  C10 MOL C   1      32.383  41.870  29.924 -0.53 +0.00    -0.005 C 
ATOM      7  C12 MOL C   1      33.096  43.058  29.353 -0.69 -0.00    +0.005 C 
ENDBRANCH   5   6
ENDBRANCH   4   5
ENDBRANCH   3   4
ENDBRANCH   2   3
ENDBRANCH   1   2
BRANCH   1   8
ATOM      8  C3  MOL C   1      30.129  39.999  27.232 -0.40 -0.00    +0.000 C 
BRANCH   8   9
ATOM      9  C5  MOL C   1      29.304  40.000  25.806 -0.43 -0.00    +0.000 C 
BRANCH   9  10
ATOM     10  C7  MOL C   1      29.621  41.181  24.815 -0.56 +0.00    -0.000 C 
BRANCH  10  11
ATOM     11  C9  MOL C   1      30.122  40.745  23.394 -0.74 +0.00    -0.005 C 
ATOM     12  C11 MOL C   1      28.895  40.844  22.423 -0.67 -0.00    +0.005 C 
ENDBRANCH  10  11
ENDBRANCH   9  10
ENDBRANCH   8   9
ENDBRANCH   1   8
TORSDOF 9
TER
ENDMDL
MODEL       75
USER    Run = 75
USER    DPF = lac2.dpf
USER  
USER    Estimated Free Energy of Binding    =   -3.35 kcal/mol  [=(1)+(2)+(3)-(4)]
USER    Estimated Inhibition Constant, Ki   =    3.53 mM (millimolar)  [Temperature = 298.15 K]
USER    
USER    (1) Final Intermolecular Energy     =   -5.54 kcal/mol
USER        vdW + Hbond + desolv Energy     =   -5.54 kcal/mol
USER        Electrostatic Energy            =   -0.00 kcal/mol
USER    (2) Final Total Internal Energy     =   -0.77 kcal/mol
USER    (3) Torsional Free Energy           =   +2.68 kcal/mol
USER    (4) Unbound System's Energy         =   -0.29 kcal/mol
USER    
USER    
USER    NEWDPF move PE_ligand.pdbqt
USER    NEWDPF about 3.037000 5.209000 3.149000
USER    NEWDPF tran0 28.273107 42.613988 32.353173
USER    NEWDPF quaternion0 0.274610 -0.845578 0.170356 0.424930
USER    NEWDPF axisangle0 0.303360 -0.934107 0.188192 129.707526
USER    NEWDPF quat0 0.303360 -0.934107 0.188192 129.707526
USER    NEWDPF dihe0 -116.39 -153.64 102.40 -44.69 -129.70 118.49 -125.74 -118.30 154.61 
USER  keepresnum = 1 
USER  
REMARK  9 active torsions:
REMARK  status: ('A' for Active; 'I' for Inactive)
REMARK    1  A    between atoms: C1_1  and  C2_2 
REMARK    2  A    between atoms: C1_1  and  C3_3 
REMARK    3  A    between atoms: C2_2  and  C4_4 
REMARK    4  A    between atoms: C3_3  and  C5_5 
REMARK    5  A    between atoms: C4_4  and  C6_6 
REMARK    6  A    between atoms: C5_5  and  C7_7 
REMARK    7  A    between atoms: C6_6  and  C8_8 
REMARK    8  A    between atoms: C7_7  and  C9_9 
REMARK    9  A    between atoms: C8_8  and  C10_10 
USER                              x       y       z     vdW  Elec       q    Type
USER                           _______ _______ _______ _____ _____    ______ ____
ROOT
ATOM      1  C1  MOL C   1      28.662  43.333  31.523 -0.43 -0.00    +0.000 C 
ENDROOT
BRANCH   1   2
ATOM      2  C2  MOL C   1      27.958  41.985  31.314 -0.36 -0.00    +0.000 C 
BRANCH   2   3
ATOM      3  C4  MOL C   1      27.725  41.830  29.775 -0.42 -0.00    +0.000 C 
BRANCH   3   4
ATOM      4  C6  MOL C   1      29.098  41.875  28.919 -0.40 -0.00    +0.000 C 
BRANCH   4   5
ATOM      5  C8  MOL C   1      29.199  40.923  27.749 -0.46 +0.00    -0.000 C 
BRANCH   5   6
ATOM      6  C10 MOL C   1      29.770  39.607  28.266 -0.43 +0.00    -0.005 C 
ATOM      7  C12 MOL C   1      31.136  39.647  28.881 -0.49 -0.00    +0.005 C 
ENDBRANCH   5   6
ENDBRANCH   4   5
ENDBRANCH   3   4
ENDBRANCH   2   3
ENDBRANCH   1   2
BRANCH   1   8
ATOM      8  C3  MOL C   1      30.005  42.974  32.277 -0.41 -0.00    +0.000 C 
BRANCH   8   9
ATOM      9  C5  MOL C   1      31.154  42.602  31.156 -0.42 -0.00    +0.000 C 
BRANCH   9  10
ATOM     10  C7  MOL C   1      31.494  43.723  30.105 -0.40 +0.00    -0.000 C 
BRANCH  10  11
ATOM     11  C9  MOL C   1      32.969  43.712  29.570 -0.68 +0.00    -0.005 C 
ATOM     12  C11 MOL C   1      33.372  42.210  29.367 -0.63 -0.00    +0.005 C 
ENDBRANCH  10  11
ENDBRANCH   9  10
ENDBRANCH   8   9
ENDBRANCH   1   8
TORSDOF 9
TER
ENDMDL
MODEL       76
USER    Run = 76
USER    DPF = lac2.dpf
USER  
USER    Estimated Free Energy of Binding    =   -3.56 kcal/mol  [=(1)+(2)+(3)-(4)]
USER    Estimated Inhibition Constant, Ki   =    2.47 mM (millimolar)  [Temperature = 298.15 K]
USER    
USER    (1) Final Intermolecular Energy     =   -5.62 kcal/mol
USER        vdW + Hbond + desolv Energy     =   -5.62 kcal/mol
USER        Electrostatic Energy            =   +0.00 kcal/mol
USER    (2) Final Total Internal Energy     =   -0.90 kcal/mol
USER    (3) Torsional Free Energy           =   +2.68 kcal/mol
USER    (4) Unbound System's Energy         =   -0.29 kcal/mol
USER    
USER    
USER    NEWDPF move PE_ligand.pdbqt
USER    NEWDPF about 3.037000 5.209000 3.149000
USER    NEWDPF tran0 31.692383 40.837668 29.883202
USER    NEWDPF quaternion0 -0.485270 0.513550 -0.576447 -0.410473
USER    NEWDPF axisangle0 -0.532168 0.563182 -0.632158 -131.530891
USER    NEWDPF quat0 -0.532168 0.563182 -0.632158 -131.530891
USER    NEWDPF dihe0 139.09 74.64 -144.64 65.98 -9.01 166.85 170.13 55.23 82.43 
USER  keepresnum = 1 
USER  
REMARK  9 active torsions:
REMARK  status: ('A' for Active; 'I' for Inactive)
REMARK    1  A    between atoms: C1_1  and  C2_2 
REMARK    2  A    between atoms: C1_1  and  C3_3 
REMARK    3  A    between atoms: C2_2  and  C4_4 
REMARK    4  A    between atoms: C3_3  and  C5_5 
REMARK    5  A    between atoms: C4_4  and  C6_6 
REMARK    6  A    between atoms: C5_5  and  C7_7 
REMARK    7  A    between atoms: C6_6  and  C8_8 
REMARK    8  A    between atoms: C7_7  and  C9_9 
REMARK    9  A    between atoms: C8_8  and  C10_10 
USER                              x       y       z     vdW  Elec       q    Type
USER                           _______ _______ _______ _____ _____    ______ ____
ROOT
ATOM      1  C1  MOL C   1      32.436  40.678  29.001 -0.48 -0.00    +0.000 C 
ENDROOT
BRANCH   1   2
ATOM      2  C2  MOL C   1      31.836  39.591  29.904 -0.45 -0.00    +0.000 C 
BRANCH   2   3
ATOM      3  C4  MOL C   1      30.687  38.909  29.090 -0.49 -0.00    +0.000 C 
BRANCH   3   4
ATOM      4  C6  MOL C   1      30.409  39.625  27.665 -0.52 -0.00    +0.000 C 
BRANCH   4   5
ATOM      5  C8  MOL C   1      29.258  40.603  27.610 -0.47 +0.00    -0.000 C 
BRANCH   5   6
ATOM      6  C10 MOL C   1      29.025  41.130  29.022 -0.39 +0.00    -0.005 C 
ATOM      7  C12 MOL C   1      27.735  41.847  29.282 -0.42 -0.00    +0.005 C 
ENDBRANCH   5   6
ENDBRANCH   4   5
ENDBRANCH   3   4
ENDBRANCH   2   3
ENDBRANCH   1   2
BRANCH   1   8
ATOM      8  C3  MOL C   1      33.297  41.580  29.972 -0.55 -0.00    +0.000 C 
BRANCH   8   9
ATOM      9  C5  MOL C   1      32.426  42.926  30.350 -0.56 -0.00    +0.000 C 
BRANCH   9  10
ATOM     10  C7  MOL C   1      31.844  42.995  31.811 -0.43 +0.00    -0.000 C 
BRANCH  10  11
ATOM     11  C9  MOL C   1      30.332  42.601  31.948 -0.39 +0.00    -0.005 C 
ATOM     12  C11 MOL C   1      29.499  43.924  31.813 -0.48 -0.00    +0.005 C 
ENDBRANCH  10  11
ENDBRANCH   9  10
ENDBRANCH   8   9
ENDBRANCH   1   8
TORSDOF 9
TER
ENDMDL
MODEL       77
USER    Run = 77
USER    DPF = lac2.dpf
USER  
USER    Estimated Free Energy of Binding    =   -3.58 kcal/mol  [=(1)+(2)+(3)-(4)]
USER    Estimated Inhibition Constant, Ki   =    2.36 mM (millimolar)  [Temperature = 298.15 K]
USER    
USER    (1) Final Intermolecular Energy     =   -6.25 kcal/mol
USER        vdW + Hbond + desolv Energy     =   -6.25 kcal/mol
USER        Electrostatic Energy            =   +0.00 kcal/mol
USER    (2) Final Total Internal Energy     =   -0.31 kcal/mol
USER    (3) Torsional Free Energy           =   +2.68 kcal/mol
USER    (4) Unbound System's Energy         =   -0.29 kcal/mol
USER    
USER    
USER    NEWDPF move PE_ligand.pdbqt
USER    NEWDPF about 3.037000 5.209000 3.149000
USER    NEWDPF tran0 31.730739 39.388235 28.370735
USER    NEWDPF quaternion0 0.358662 -0.358425 -0.815554 -0.278862
USER    NEWDPF axisangle0 0.373478 -0.373231 -0.849243 -147.615431
USER    NEWDPF quat0 0.373478 -0.373231 -0.849243 -147.615431
USER    NEWDPF dihe0 110.70 90.36 -16.27 180.00 -95.39 -64.13 -41.82 41.87 -93.18 
USER  keepresnum = 1 
USER  
REMARK  9 active torsions:
REMARK  status: ('A' for Active; 'I' for Inactive)
REMARK    1  A    between atoms: C1_1  and  C2_2 
REMARK    2  A    between atoms: C1_1  and  C3_3 
REMARK    3  A    between atoms: C2_2  and  C4_4 
REMARK    4  A    between atoms: C3_3  and  C5_5 
REMARK    5  A    between atoms: C4_4  and  C6_6 
REMARK    6  A    between atoms: C5_5  and  C7_7 
REMARK    7  A    between atoms: C6_6  and  C8_8 
REMARK    8  A    between atoms: C7_7  and  C9_9 
REMARK    9  A    between atoms: C8_8  and  C10_10 
USER                              x       y       z     vdW  Elec       q    Type
USER                           _______ _______ _______ _____ _____    ______ ____
ROOT
ATOM      1  C1  MOL C   1      31.372  39.242  29.470 -0.46 -0.00    +0.000 C 
ENDROOT
BRANCH   1   2
ATOM      2  C2  MOL C   1      30.763  38.605  28.213 -0.53 -0.00    +0.000 C 
BRANCH   2   3
ATOM      3  C4  MOL C   1      29.983  39.735  27.464 -0.48 -0.00    +0.000 C 
BRANCH   3   4
ATOM      4  C6  MOL C   1      30.098  39.624  25.853 -0.42 -0.00    +0.000 C 
BRANCH   4   5
ATOM      5  C8  MOL C   1      29.284  40.609  25.046 -0.47 +0.00    -0.000 C 
BRANCH   5   6
ATOM      6  C10 MOL C   1      29.991  40.814  23.710 -0.75 +0.00    -0.005 C 
ATOM      7  C12 MOL C   1      29.217  41.499  22.623 -0.75 -0.00    +0.005 C 
ENDBRANCH   5   6
ENDBRANCH   4   5
ENDBRANCH   3   4
ENDBRANCH   2   3
ENDBRANCH   1   2
BRANCH   1   8
ATOM      8  C3  MOL C   1      31.159  40.797  29.278 -0.41 -0.00    +0.000 C 
BRANCH   8   9
ATOM      9  C5  MOL C   1      32.633  41.510  29.089 -0.52 -0.00    +0.000 C 
BRANCH   9  10
ATOM     10  C7  MOL C   1      32.987  42.664  30.099 -0.60 +0.00    -0.000 C 
BRANCH  10  11
ATOM     11  C9  MOL C   1      32.061  42.754  31.362 -0.44 +0.00    -0.005 C 
ATOM     12  C11 MOL C   1      30.710  43.401  30.896 -0.40 -0.00    +0.005 C 
ENDBRANCH  10  11
ENDBRANCH   9  10
ENDBRANCH   8   9
ENDBRANCH   1   8
TORSDOF 9
TER
ENDMDL
MODEL       78
USER    Run = 78
USER    DPF = lac2.dpf
USER  
USER    Estimated Free Energy of Binding    =   -3.43 kcal/mol  [=(1)+(2)+(3)-(4)]
USER    Estimated Inhibition Constant, Ki   =    3.07 mM (millimolar)  [Temperature = 298.15 K]
USER    
USER    (1) Final Intermolecular Energy     =   -5.55 kcal/mol
USER        vdW + Hbond + desolv Energy     =   -5.55 kcal/mol
USER        Electrostatic Energy            =   +0.00 kcal/mol
USER    (2) Final Total Internal Energy     =   -0.85 kcal/mol
USER    (3) Torsional Free Energy           =   +2.68 kcal/mol
USER    (4) Unbound System's Energy         =   -0.29 kcal/mol
USER    
USER    
USER    NEWDPF move PE_ligand.pdbqt
USER    NEWDPF about 3.037000 5.209000 3.149000
USER    NEWDPF tran0 32.509652 42.339195 30.124835
USER    NEWDPF quaternion0 -0.266966 0.386838 0.431849 0.769800
USER    NEWDPF axisangle0 -0.418254 0.606059 0.676577 79.328151
USER    NEWDPF quat0 -0.418254 0.606059 0.676577 79.328151
USER    NEWDPF dihe0 38.40 146.26 107.48 -64.52 -113.36 -177.67 43.59 -113.00 -42.53 
USER  keepresnum = 1 
USER  
REMARK  9 active torsions:
REMARK  status: ('A' for Active; 'I' for Inactive)
REMARK    1  A    between atoms: C1_1  and  C2_2 
REMARK    2  A    between atoms: C1_1  and  C3_3 
REMARK    3  A    between atoms: C2_2  and  C4_4 
REMARK    4  A    between atoms: C3_3  and  C5_5 
REMARK    5  A    between atoms: C4_4  and  C6_6 
REMARK    6  A    between atoms: C5_5  and  C7_7 
REMARK    7  A    between atoms: C6_6  and  C8_8 
REMARK    8  A    between atoms: C7_7  and  C9_9 
REMARK    9  A    between atoms: C8_8  and  C10_10 
USER                              x       y       z     vdW  Elec       q    Type
USER                           _______ _______ _______ _____ _____    ______ ____
ROOT
ATOM      1  C1  MOL C   1      32.249  42.801  31.162 -0.45 -0.00    +0.000 C 
ENDROOT
BRANCH   1   2
ATOM      2  C2  MOL C   1      32.650  41.346  30.879 -0.45 -0.00    +0.000 C 
BRANCH   2   3
ATOM      3  C4  MOL C   1      32.321  41.070  29.375 -0.52 -0.00    +0.000 C 
BRANCH   3   4
ATOM      4  C6  MOL C   1      31.502  39.692  29.148 -0.49 -0.00    +0.000 C 
BRANCH   4   5
ATOM      5  C8  MOL C   1      30.692  39.586  27.876 -0.53 +0.00    -0.000 C 
BRANCH   5   6
ATOM      6  C10 MOL C   1      29.353  40.274  28.117 -0.44 +0.00    -0.005 C 
ATOM      7  C12 MOL C   1      29.239  41.714  27.715 -0.46 -0.00    +0.005 C 
ENDBRANCH   5   6
ENDBRANCH   4   5
ENDBRANCH   3   4
ENDBRANCH   2   3
ENDBRANCH   1   2
BRANCH   1   8
ATOM      8  C3  MOL C   1      30.889  43.004  30.382 -0.41 -0.00    +0.000 C 
BRANCH   8   9
ATOM      9  C5  MOL C   1      29.642  42.661  31.401 -0.38 -0.00    +0.000 C 
BRANCH   9  10
ATOM     10  C7  MOL C   1      28.585  43.806  31.625 -0.46 +0.00    -0.000 C 
BRANCH  10  11
ATOM     11  C9  MOL C   1      27.087  43.377  31.444 -0.54 +0.00    -0.005 C 
ATOM     12  C11 MOL C   1      27.085  42.061  30.590 -0.43 -0.00    +0.005 C 
ENDBRANCH  10  11
ENDBRANCH   9  10
ENDBRANCH   8   9
ENDBRANCH   1   8
TORSDOF 9
TER
ENDMDL
MODEL       79
USER    Run = 79
USER    DPF = lac2.dpf
USER  
USER    Estimated Free Energy of Binding    =   -3.95 kcal/mol  [=(1)+(2)+(3)-(4)]
USER    Estimated Inhibition Constant, Ki   =    1.28 mM (millimolar)  [Temperature = 298.15 K]
USER    
USER    (1) Final Intermolecular Energy     =   -6.31 kcal/mol
USER        vdW + Hbond + desolv Energy     =   -6.31 kcal/mol
USER        Electrostatic Energy            =   +0.00 kcal/mol
USER    (2) Final Total Internal Energy     =   -0.61 kcal/mol
USER    (3) Torsional Free Energy           =   +2.68 kcal/mol
USER    (4) Unbound System's Energy         =   -0.29 kcal/mol
USER    
USER    
USER    NEWDPF move PE_ligand.pdbqt
USER    NEWDPF about 3.037000 5.209000 3.149000
USER    NEWDPF tran0 30.686818 40.346103 28.599391
USER    NEWDPF quaternion0 0.197353 0.535043 -0.815871 -0.095577
USER    NEWDPF axisangle0 0.198261 0.537503 -0.819624 -169.030897
USER    NEWDPF quat0 0.198261 0.537503 -0.819624 -169.030897
USER    NEWDPF dihe0 -139.90 -156.68 -80.12 18.35 -117.98 142.63 -173.10 55.56 92.07 
USER  keepresnum = 1 
USER  
REMARK  9 active torsions:
REMARK  status: ('A' for Active; 'I' for Inactive)
REMARK    1  A    between atoms: C1_1  and  C2_2 
REMARK    2  A    between atoms: C1_1  and  C3_3 
REMARK    3  A    between atoms: C2_2  and  C4_4 
REMARK    4  A    between atoms: C3_3  and  C5_5 
REMARK    5  A    between atoms: C4_4  and  C6_6 
REMARK    6  A    between atoms: C5_5  and  C7_7 
REMARK    7  A    between atoms: C6_6  and  C8_8 
REMARK    8  A    between atoms: C7_7  and  C9_9 
REMARK    9  A    between atoms: C8_8  and  C10_10 
USER                              x       y       z     vdW  Elec       q    Type
USER                           _______ _______ _______ _____ _____    ______ ____
ROOT
ATOM      1  C1  MOL C   1      30.941  39.290  28.178 -0.54 -0.00    +0.000 C 
ENDROOT
BRANCH   1   2
ATOM      2  C2  MOL C   1      29.583  40.004  28.108 -0.45 -0.00    +0.000 C 
BRANCH   2   3
ATOM      3  C4  MOL C   1      29.334  40.356  26.605 -0.42 -0.00    +0.000 C 
BRANCH   3   4
ATOM      4  C6  MOL C   1      30.374  39.626  25.602 -0.34 -0.00    +0.000 C 
BRANCH   4   5
ATOM      5  C8  MOL C   1      29.888  39.359  24.196 -0.60 +0.00    -0.000 C 
BRANCH   5   6
ATOM      6  C10 MOL C   1      30.221  40.581  23.347 -0.73 +0.00    -0.005 C 
ATOM      7  C12 MOL C   1      29.249  41.722  23.377 -0.80 -0.00    +0.005 C 
ENDBRANCH   5   6
ENDBRANCH   4   5
ENDBRANCH   3   4
ENDBRANCH   2   3
ENDBRANCH   1   2
BRANCH   1   8
ATOM      8  C3  MOL C   1      31.207  39.080  29.722 -0.44 -0.00    +0.000 C 
BRANCH   8   9
ATOM      9  C5  MOL C   1      32.233  40.260  30.243 -0.45 -0.00    +0.000 C 
BRANCH   9  10
ATOM     10  C7  MOL C   1      31.579  41.645  30.608 -0.39 +0.00    -0.000 C 
BRANCH  10  11
ATOM     11  C9  MOL C   1      32.472  42.901  30.323 -0.56 +0.00    -0.005 C 
ATOM     12  C11 MOL C   1      33.266  42.611  29.001 -0.60 -0.00    +0.005 C 
ENDBRANCH  10  11
ENDBRANCH   9  10
ENDBRANCH   8   9
ENDBRANCH   1   8
TORSDOF 9
TER
ENDMDL
MODEL       80
USER    Run = 80
USER    DPF = lac2.dpf
USER  
USER    Estimated Free Energy of Binding    =   -3.33 kcal/mol  [=(1)+(2)+(3)-(4)]
USER    Estimated Inhibition Constant, Ki   =    3.63 mM (millimolar)  [Temperature = 298.15 K]
USER    
USER    (1) Final Intermolecular Energy     =   -5.62 kcal/mol
USER        vdW + Hbond + desolv Energy     =   -5.62 kcal/mol
USER        Electrostatic Energy            =   +0.00 kcal/mol
USER    (2) Final Total Internal Energy     =   -0.68 kcal/mol
USER    (3) Torsional Free Energy           =   +2.68 kcal/mol
USER    (4) Unbound System's Energy         =   -0.29 kcal/mol
USER    
USER    
USER    NEWDPF move PE_ligand.pdbqt
USER    NEWDPF about 3.037000 5.209000 3.149000
USER    NEWDPF tran0 30.197362 40.779495 28.877404
USER    NEWDPF quaternion0 -0.617356 0.386748 0.604716 0.321895
USER    NEWDPF axisangle0 -0.652062 0.408490 0.638711 142.444881
USER    NEWDPF quat0 -0.652062 0.408490 0.638711 142.444881
USER    NEWDPF dihe0 165.40 -93.64 -62.53 179.23 -23.68 127.22 173.59 -69.51 40.88 
USER  keepresnum = 1 
USER  
REMARK  9 active torsions:
REMARK  status: ('A' for Active; 'I' for Inactive)
REMARK    1  A    between atoms: C1_1  and  C2_2 
REMARK    2  A    between atoms: C1_1  and  C3_3 
REMARK    3  A    between atoms: C2_2  and  C4_4 
REMARK    4  A    between atoms: C3_3  and  C5_5 
REMARK    5  A    between atoms: C4_4  and  C6_6 
REMARK    6  A    between atoms: C5_5  and  C7_7 
REMARK    7  A    between atoms: C6_6  and  C8_8 
REMARK    8  A    between atoms: C7_7  and  C9_9 
REMARK    9  A    between atoms: C8_8  and  C10_10 
USER                              x       y       z     vdW  Elec       q    Type
USER                           _______ _______ _______ _____ _____    ______ ____
ROOT
ATOM      1  C1  MOL C   1      29.368  40.494  29.644 -0.32 -0.00    +0.000 C 
ENDROOT
BRANCH   1   2
ATOM      2  C2  MOL C   1      29.768  39.706  28.389 -0.44 -0.00    +0.000 C 
BRANCH   2   3
ATOM      3  C4  MOL C   1      31.273  39.316  28.560 -0.49 -0.00    +0.000 C 
BRANCH   3   4
ATOM      4  C6  MOL C   1      31.923  39.884  29.929 -0.45 -0.00    +0.000 C 
BRANCH   4   5
ATOM      5  C8  MOL C   1      32.996  40.940  29.784 -0.52 +0.00    -0.000 C 
BRANCH   5   6
ATOM      6  C10 MOL C   1      32.394  42.277  30.202 -0.53 +0.00    -0.005 C 
ATOM      7  C12 MOL C   1      32.748  43.476  29.375 -0.68 -0.00    +0.005 C 
ENDBRANCH   5   6
ENDBRANCH   4   5
ENDBRANCH   3   4
ENDBRANCH   2   3
ENDBRANCH   1   2
BRANCH   1   8
ATOM      8  C3  MOL C   1      28.824  41.875  29.098 -0.40 -0.00    +0.000 C 
BRANCH   8   9
ATOM      9  C5  MOL C   1      27.435  42.248  29.902 -0.42 -0.00    +0.000 C 
BRANCH   9  10
ATOM     10  C7  MOL C   1      27.582  42.585  31.433 -0.46 +0.00    -0.000 C 
BRANCH  10  11
ATOM     11  C9  MOL C   1      29.049  42.849  31.920 -0.38 +0.00    -0.005 C 
ATOM     12  C11 MOL C   1      29.235  44.405  31.999 -0.53 -0.00    +0.005 C 
ENDBRANCH  10  11
ENDBRANCH   9  10
ENDBRANCH   8   9
ENDBRANCH   1   8
TORSDOF 9
TER
ENDMDL
MODEL       81
USER    Run = 81
USER    DPF = lac2.dpf
USER  
USER    Estimated Free Energy of Binding    =   -3.42 kcal/mol  [=(1)+(2)+(3)-(4)]
USER    Estimated Inhibition Constant, Ki   =    3.09 mM (millimolar)  [Temperature = 298.15 K]
USER    
USER    (1) Final Intermolecular Energy     =   -5.65 kcal/mol
USER        vdW + Hbond + desolv Energy     =   -5.64 kcal/mol
USER        Electrostatic Energy            =   -0.00 kcal/mol
USER    (2) Final Total Internal Energy     =   -0.75 kcal/mol
USER    (3) Torsional Free Energy           =   +2.68 kcal/mol
USER    (4) Unbound System's Energy         =   -0.29 kcal/mol
USER    
USER    
USER    NEWDPF move PE_ligand.pdbqt
USER    NEWDPF about 3.037000 5.209000 3.149000
USER    NEWDPF tran0 30.481361 40.541370 28.680694
USER    NEWDPF quaternion0 0.143560 0.555562 -0.705999 -0.415100
USER    NEWDPF axisangle0 0.157797 0.610658 -0.776014 -130.948799
USER    NEWDPF quat0 0.157797 0.610658 -0.776014 -130.948799
USER    NEWDPF dihe0 50.06 171.11 -30.62 -83.96 179.89 15.17 64.56 27.89 8.53 
USER  keepresnum = 1 
USER  
REMARK  9 active torsions:
REMARK  status: ('A' for Active; 'I' for Inactive)
REMARK    1  A    between atoms: C1_1  and  C2_2 
REMARK    2  A    between atoms: C1_1  and  C3_3 
REMARK    3  A    between atoms: C2_2  and  C4_4 
REMARK    4  A    between atoms: C3_3  and  C5_5 
REMARK    5  A    between atoms: C4_4  and  C6_6 
REMARK    6  A    between atoms: C5_5  and  C7_7 
REMARK    7  A    between atoms: C6_6  and  C8_8 
REMARK    8  A    between atoms: C7_7  and  C9_9 
REMARK    9  A    between atoms: C8_8  and  C10_10 
USER                              x       y       z     vdW  Elec       q    Type
USER                           _______ _______ _______ _____ _____    ______ ____
ROOT
ATOM      1  C1  MOL C   1      31.398  39.869  28.429 -0.45 -0.00    +0.000 C 
ENDROOT
BRANCH   1   2
ATOM      2  C2  MOL C   1      29.959  39.684  27.927 -0.48 -0.00    +0.000 C 
BRANCH   2   3
ATOM      3  C4  MOL C   1      29.304  41.104  27.899 -0.46 -0.00    +0.000 C 
BRANCH   3   4
ATOM      4  C6  MOL C   1      28.152  41.292  29.021 -0.42 -0.00    +0.000 C 
BRANCH   4   5
ATOM      5  C8  MOL C   1      28.594  41.826  30.365 -0.34 +0.00    -0.000 C 
BRANCH   5   6
ATOM      6  C10 MOL C   1      27.551  42.836  30.831 -0.47 +0.00    -0.005 C 
ATOM      7  C12 MOL C   1      26.624  42.406  31.929 -0.45 -0.00    +0.005 C 
ENDBRANCH   5   6
ENDBRANCH   4   5
ENDBRANCH   3   4
ENDBRANCH   2   3
ENDBRANCH   1   2
BRANCH   1   8
ATOM      8  C3  MOL C   1      31.305  39.691  29.997 -0.40 -0.00    +0.000 C 
BRANCH   8   9
ATOM      9  C5  MOL C   1      32.001  41.000  30.716 -0.39 -0.00    +0.000 C 
BRANCH   9  10
ATOM     10  C7  MOL C   1      33.373  41.482  30.115 -0.55 +0.00    -0.000 C 
BRANCH  10  11
ATOM     11  C9  MOL C   1      33.326  42.855  29.359 -0.68 +0.00    -0.005 C 
ATOM     12  C11 MOL C   1      31.875  43.425  29.532 -0.55 -0.00    +0.005 C 
ENDBRANCH  10  11
ENDBRANCH   9  10
ENDBRANCH   8   9
ENDBRANCH   1   8
TORSDOF 9
TER
ENDMDL
MODEL       82
USER    Run = 82
USER    DPF = lac2.dpf
USER  
USER    Estimated Free Energy of Binding    =   -3.44 kcal/mol  [=(1)+(2)+(3)-(4)]
USER    Estimated Inhibition Constant, Ki   =    2.99 mM (millimolar)  [Temperature = 298.15 K]
USER    
USER    (1) Final Intermolecular Energy     =   -5.59 kcal/mol
USER        vdW + Hbond + desolv Energy     =   -5.59 kcal/mol
USER        Electrostatic Energy            =   -0.00 kcal/mol
USER    (2) Final Total Internal Energy     =   -0.82 kcal/mol
USER    (3) Torsional Free Energy           =   +2.68 kcal/mol
USER    (4) Unbound System's Energy         =   -0.29 kcal/mol
USER    
USER    
USER    NEWDPF move PE_ligand.pdbqt
USER    NEWDPF about 3.037000 5.209000 3.149000
USER    NEWDPF tran0 31.908353 42.911409 30.627357
USER    NEWDPF quaternion0 0.688755 0.039403 -0.550227 0.470440
USER    NEWDPF axisangle0 0.780519 0.044653 -0.623535 123.874235
USER    NEWDPF quat0 0.780519 0.044653 -0.623535 123.874235
USER    NEWDPF dihe0 104.23 28.93 45.68 65.80 171.18 180.00 180.00 31.09 23.45 
USER  keepresnum = 1 
USER  
REMARK  9 active torsions:
REMARK  status: ('A' for Active; 'I' for Inactive)
REMARK    1  A    between atoms: C1_1  and  C2_2 
REMARK    2  A    between atoms: C1_1  and  C3_3 
REMARK    3  A    between atoms: C2_2  and  C4_4 
REMARK    4  A    between atoms: C3_3  and  C5_5 
REMARK    5  A    between atoms: C4_4  and  C6_6 
REMARK    6  A    between atoms: C5_5  and  C7_7 
REMARK    7  A    between atoms: C6_6  and  C8_8 
REMARK    8  A    between atoms: C7_7  and  C9_9 
REMARK    9  A    between atoms: C8_8  and  C10_10 
USER                              x       y       z     vdW  Elec       q    Type
USER                           _______ _______ _______ _____ _____    ______ ____
ROOT
ATOM      1  C1  MOL C   1      30.856  42.822  30.136 -0.39 -0.00    +0.000 C 
ENDROOT
BRANCH   1   2
ATOM      2  C2  MOL C   1      32.002  43.741  29.690 -0.54 -0.00    +0.000 C 
BRANCH   2   3
ATOM      3  C4  MOL C   1      33.315  42.893  29.757 -0.66 -0.00    +0.000 C 
BRANCH   3   4
ATOM      4  C6  MOL C   1      33.049  41.343  30.141 -0.55 -0.00    +0.000 C 
BRANCH   4   5
ATOM      5  C8  MOL C   1      32.621  40.429  29.015 -0.42 +0.00    -0.000 C 
BRANCH   5   6
ATOM      6  C10 MOL C   1      31.643  39.409  29.588 -0.45 +0.00    -0.005 C 
ATOM      7  C12 MOL C   1      30.739  38.707  28.620 -0.52 -0.00    +0.005 C 
ENDBRANCH   5   6
ENDBRANCH   4   5
ENDBRANCH   3   4
ENDBRANCH   2   3
ENDBRANCH   1   2
BRANCH   1   8
ATOM      8  C3  MOL C   1      30.479  43.322  31.588 -0.44 -0.00    +0.000 C 
BRANCH   8   9
ATOM      9  C5  MOL C   1      30.597  42.050  32.629 -0.35 -0.00    +0.000 C 
BRANCH   9  10
ATOM     10  C7  MOL C   1      31.615  42.212  33.818 -0.31 +0.00    -0.000 C 
BRANCH  10  11
ATOM     11  C9  MOL C   1      33.000  41.506  33.612 -0.44 +0.00    -0.005 C 
ATOM     12  C11 MOL C   1      33.373  40.818  34.971 -0.52 -0.01    +0.005 C 
ENDBRANCH  10  11
ENDBRANCH   9  10
ENDBRANCH   8   9
ENDBRANCH   1   8
TORSDOF 9
TER
ENDMDL
MODEL       83
USER    Run = 83
USER    DPF = lac2.dpf
USER  
USER    Estimated Free Energy of Binding    =   -3.52 kcal/mol  [=(1)+(2)+(3)-(4)]
USER    Estimated Inhibition Constant, Ki   =    2.63 mM (millimolar)  [Temperature = 298.15 K]
USER    
USER    (1) Final Intermolecular Energy     =   -5.58 kcal/mol
USER        vdW + Hbond + desolv Energy     =   -5.58 kcal/mol
USER        Electrostatic Energy            =   -0.00 kcal/mol
USER    (2) Final Total Internal Energy     =   -0.91 kcal/mol
USER    (3) Torsional Free Energy           =   +2.68 kcal/mol
USER    (4) Unbound System's Energy         =   -0.29 kcal/mol
USER    
USER    
USER    NEWDPF move PE_ligand.pdbqt
USER    NEWDPF about 3.037000 5.209000 3.149000
USER    NEWDPF tran0 29.985039 40.963217 29.529205
USER    NEWDPF quaternion0 0.098415 -0.767096 0.632884 -0.036538
USER    NEWDPF axisangle0 0.098481 -0.767609 0.633307 -175.812084
USER    NEWDPF quat0 0.098481 -0.767609 0.633307 -175.812084
USER    NEWDPF dihe0 179.65 -108.95 179.91 36.90 179.89 154.69 12.79 20.09 60.58 
USER  keepresnum = 1 
USER  
REMARK  9 active torsions:
REMARK  status: ('A' for Active; 'I' for Inactive)
REMARK    1  A    between atoms: C1_1  and  C2_2 
REMARK    2  A    between atoms: C1_1  and  C3_3 
REMARK    3  A    between atoms: C2_2  and  C4_4 
REMARK    4  A    between atoms: C3_3  and  C5_5 
REMARK    5  A    between atoms: C4_4  and  C6_6 
REMARK    6  A    between atoms: C5_5  and  C7_7 
REMARK    7  A    between atoms: C6_6  and  C8_8 
REMARK    8  A    between atoms: C7_7  and  C9_9 
REMARK    9  A    between atoms: C8_8  and  C10_10 
USER                              x       y       z     vdW  Elec       q    Type
USER                           _______ _______ _______ _____ _____    ______ ____
ROOT
ATOM      1  C1  MOL C   1      29.971  40.390  28.515 -0.43 -0.00    +0.000 C 
ENDROOT
BRANCH   1   2
ATOM      2  C2  MOL C   1      28.822  40.491  29.529 -0.34 -0.00    +0.000 C 
BRANCH   2   3
ATOM      3  C4  MOL C   1      28.139  41.880  29.302 -0.42 -0.00    +0.000 C 
BRANCH   3   4
ATOM      4  C6  MOL C   1      27.216  42.344  30.548 -0.45 -0.00    +0.000 C 
BRANCH   4   5
ATOM      5  C8  MOL C   1      27.892  43.163  31.624 -0.48 +0.00    -0.000 C 
BRANCH   5   6
ATOM      6  C10 MOL C   1      29.395  43.117  31.372 -0.40 +0.00    -0.005 C 
ATOM      7  C12 MOL C   1      30.265  42.643  32.498 -0.37 -0.00    +0.005 C 
ENDBRANCH   5   6
ENDBRANCH   4   5
ENDBRANCH   3   4
ENDBRANCH   2   3
ENDBRANCH   1   2
BRANCH   1   8
ATOM      8  C3  MOL C   1      31.123  39.629  29.285 -0.46 -0.00    +0.000 C 
BRANCH   8   9
ATOM      9  C5  MOL C   1      32.547  40.409  29.004 -0.43 -0.00    +0.000 C 
BRANCH   9  10
ATOM     10  C7  MOL C   1      32.992  41.464  30.084 -0.56 +0.00    -0.000 C 
BRANCH  10  11
ATOM     11  C9  MOL C   1      33.369  42.878  29.520 -0.67 +0.00    -0.005 C 
ATOM     12  C11 MOL C   1      32.033  43.687  29.376 -0.56 -0.00    +0.005 C 
ENDBRANCH  10  11
ENDBRANCH   9  10
ENDBRANCH   8   9
ENDBRANCH   1   8
TORSDOF 9
TER
ENDMDL
MODEL       84
USER    Run = 84
USER    DPF = lac2.dpf
USER  
USER    Estimated Free Energy of Binding    =   -4.09 kcal/mol  [=(1)+(2)+(3)-(4)]
USER    Estimated Inhibition Constant, Ki   =  998.46 uM (micromolar)  [Temperature = 298.15 K]
USER    
USER    (1) Final Intermolecular Energy     =   -6.51 kcal/mol
USER        vdW + Hbond + desolv Energy     =   -6.51 kcal/mol
USER        Electrostatic Energy            =   -0.00 kcal/mol
USER    (2) Final Total Internal Energy     =   -0.55 kcal/mol
USER    (3) Torsional Free Energy           =   +2.68 kcal/mol
USER    (4) Unbound System's Energy         =   -0.29 kcal/mol
USER    
USER    
USER    NEWDPF move PE_ligand.pdbqt
USER    NEWDPF about 3.037000 5.209000 3.149000
USER    NEWDPF tran0 29.092212 39.897177 28.638084
USER    NEWDPF quaternion0 -0.008968 0.790249 -0.014218 -0.612555
USER    NEWDPF axisangle0 -0.011346 0.999774 -0.017988 -104.451062
USER    NEWDPF quat0 -0.011346 0.999774 -0.017988 -104.451062
USER    NEWDPF dihe0 -21.11 -60.51 27.44 51.90 -168.65 135.70 29.61 -92.39 -155.53 
USER  keepresnum = 1 
USER  
REMARK  9 active torsions:
REMARK  status: ('A' for Active; 'I' for Inactive)
REMARK    1  A    between atoms: C1_1  and  C2_2 
REMARK    2  A    between atoms: C1_1  and  C3_3 
REMARK    3  A    between atoms: C2_2  and  C4_4 
REMARK    4  A    between atoms: C3_3  and  C5_5 
REMARK    5  A    between atoms: C4_4  and  C6_6 
REMARK    6  A    between atoms: C5_5  and  C7_7 
REMARK    7  A    between atoms: C6_6  and  C8_8 
REMARK    8  A    between atoms: C7_7  and  C9_9 
REMARK    9  A    between atoms: C8_8  and  C10_10 
USER                              x       y       z     vdW  Elec       q    Type
USER                           _______ _______ _______ _____ _____    ______ ____
ROOT
ATOM      1  C1  MOL C   1      29.857  40.768  28.525 -0.42 -0.00    +0.000 C 
ENDROOT
BRANCH   1   2
ATOM      2  C2  MOL C   1      29.167  40.000  27.389 -0.42 -0.00    +0.000 C 
BRANCH   2   3
ATOM      3  C4  MOL C   1      30.264  39.690  26.319 -0.38 -0.00    +0.000 C 
BRANCH   3   4
ATOM      4  C6  MOL C   1      29.697  39.719  24.803 -0.57 -0.00    +0.000 C 
BRANCH   4   5
ATOM      5  C8  MOL C   1      29.999  40.957  23.989 -0.71 +0.00    -0.000 C 
BRANCH   5   6
ATOM      6  C10 MOL C   1      29.055  40.969  22.792 -0.79 +0.00    -0.005 C 
ATOM      7  C12 MOL C   1      27.675  40.421  23.001 -0.59 -0.00    +0.005 C 
ENDBRANCH   5   6
ENDBRANCH   4   5
ENDBRANCH   3   4
ENDBRANCH   2   3
ENDBRANCH   1   2
BRANCH   1   8
ATOM      8  C3  MOL C   1      30.731  39.684  29.274 -0.43 -0.00    +0.000 C 
BRANCH   8   9
ATOM      9  C5  MOL C   1      32.323  40.036  29.035 -0.43 -0.00    +0.000 C 
BRANCH   9  10
ATOM     10  C7  MOL C   1      32.909  41.230  29.876 -0.55 +0.00    -0.000 C 
BRANCH  10  11
ATOM     11  C9  MOL C   1      33.343  42.485  29.041 -0.59 +0.00    -0.005 C 
ATOM     12  C11 MOL C   1      32.749  43.745  29.764 -0.63 -0.00    +0.005 C 
ENDBRANCH  10  11
ENDBRANCH   9  10
ENDBRANCH   8   9
ENDBRANCH   1   8
TORSDOF 9
TER
ENDMDL
MODEL       85
USER    Run = 85
USER    DPF = lac2.dpf
USER  
USER    Estimated Free Energy of Binding    =   -3.73 kcal/mol  [=(1)+(2)+(3)-(4)]
USER    Estimated Inhibition Constant, Ki   =    1.83 mM (millimolar)  [Temperature = 298.15 K]
USER    
USER    (1) Final Intermolecular Energy     =   -6.18 kcal/mol
USER        vdW + Hbond + desolv Energy     =   -6.18 kcal/mol
USER        Electrostatic Energy            =   -0.00 kcal/mol
USER    (2) Final Total Internal Energy     =   -0.52 kcal/mol
USER    (3) Torsional Free Energy           =   +2.68 kcal/mol
USER    (4) Unbound System's Energy         =   -0.29 kcal/mol
USER    
USER    
USER    NEWDPF move PE_ligand.pdbqt
USER    NEWDPF about 3.037000 5.209000 3.149000
USER    NEWDPF tran0 31.348633 40.119070 28.364618
USER    NEWDPF quaternion0 -0.683792 0.435213 -0.148696 0.566487
USER    NEWDPF axisangle0 -0.829773 0.528127 -0.180440 110.988728
USER    NEWDPF quat0 -0.829773 0.528127 -0.180440 110.988728
USER    NEWDPF dihe0 -136.65 -58.07 -95.91 -115.47 -171.76 -171.71 56.52 -3.96 53.50 
USER  keepresnum = 1 
USER  
REMARK  9 active torsions:
REMARK  status: ('A' for Active; 'I' for Inactive)
REMARK    1  A    between atoms: C1_1  and  C2_2 
REMARK    2  A    between atoms: C1_1  and  C3_3 
REMARK    3  A    between atoms: C2_2  and  C4_4 
REMARK    4  A    between atoms: C3_3  and  C5_5 
REMARK    5  A    between atoms: C4_4  and  C6_6 
REMARK    6  A    between atoms: C5_5  and  C7_7 
REMARK    7  A    between atoms: C6_6  and  C8_8 
REMARK    8  A    between atoms: C7_7  and  C9_9 
REMARK    9  A    between atoms: C8_8  and  C10_10 
USER                              x       y       z     vdW  Elec       q    Type
USER                           _______ _______ _______ _____ _____    ______ ____
ROOT
ATOM      1  C1  MOL C   1      30.396  39.497  28.616 -0.48 -0.00    +0.000 C 
ENDROOT
BRANCH   1   2
ATOM      2  C2  MOL C   1      31.812  39.270  29.165 -0.37 -0.00    +0.000 C 
BRANCH   2   3
ATOM      3  C4  MOL C   1      32.092  40.420  30.187 -0.44 -0.00    +0.000 C 
BRANCH   3   4
ATOM      4  C6  MOL C   1      33.349  41.350  29.767 -0.48 -0.00    +0.000 C 
BRANCH   4   5
ATOM      5  C8  MOL C   1      33.026  42.658  29.081 -0.64 +0.00    -0.000 C 
BRANCH   5   6
ATOM      6  C10 MOL C   1      32.464  43.609  30.132 -0.51 +0.00    -0.005 C 
ATOM      7  C12 MOL C   1      31.017  43.455  30.492 -0.38 -0.00    +0.005 C 
ENDBRANCH   5   6
ENDBRANCH   4   5
ENDBRANCH   3   4
ENDBRANCH   2   3
ENDBRANCH   1   2
BRANCH   1   8
ATOM      8  C3  MOL C   1      30.522  39.254  27.059 -0.50 -0.00    +0.000 C 
BRANCH   8   9
ATOM      9  C5  MOL C   1      29.260  40.000  26.307 -0.40 -0.00    +0.000 C 
BRANCH   9  10
ATOM     10  C7  MOL C   1      29.624  40.957  25.112 -0.49 +0.00    -0.000 C 
BRANCH  10  11
ATOM     11  C9  MOL C   1      29.940  40.240  23.754 -0.73 +0.00    -0.005 C 
ATOM     12  C11 MOL C   1      29.187  41.032  22.629 -0.78 -0.00    +0.005 C 
ENDBRANCH  10  11
ENDBRANCH   9  10
ENDBRANCH   8   9
ENDBRANCH   1   8
TORSDOF 9
TER
ENDMDL
MODEL       86
USER    Run = 86
USER    DPF = lac2.dpf
USER  
USER    Estimated Free Energy of Binding    =   -3.57 kcal/mol  [=(1)+(2)+(3)-(4)]
USER    Estimated Inhibition Constant, Ki   =    2.42 mM (millimolar)  [Temperature = 298.15 K]
USER    
USER    (1) Final Intermolecular Energy     =   -5.65 kcal/mol
USER        vdW + Hbond + desolv Energy     =   -5.65 kcal/mol
USER        Electrostatic Energy            =   -0.00 kcal/mol
USER    (2) Final Total Internal Energy     =   -0.89 kcal/mol
USER    (3) Torsional Free Energy           =   +2.68 kcal/mol
USER    (4) Unbound System's Energy         =   -0.29 kcal/mol
USER    
USER    
USER    NEWDPF move PE_ligand.pdbqt
USER    NEWDPF about 3.037000 5.209000 3.149000
USER    NEWDPF tran0 29.996959 41.104000 29.312260
USER    NEWDPF quaternion0 -0.795972 0.184775 0.559400 0.139135
USER    NEWDPF axisangle0 -0.803790 0.186590 0.564894 164.004458
USER    NEWDPF quat0 -0.803790 0.186590 0.564894 164.004458
USER    NEWDPF dihe0 73.11 147.86 -154.85 91.21 -22.91 -151.07 149.75 -7.85 47.39 
USER  keepresnum = 1 
USER  
REMARK  9 active torsions:
REMARK  status: ('A' for Active; 'I' for Inactive)
REMARK    1  A    between atoms: C1_1  and  C2_2 
REMARK    2  A    between atoms: C1_1  and  C3_3 
REMARK    3  A    between atoms: C2_2  and  C4_4 
REMARK    4  A    between atoms: C3_3  and  C5_5 
REMARK    5  A    between atoms: C4_4  and  C6_6 
REMARK    6  A    between atoms: C5_5  and  C7_7 
REMARK    7  A    between atoms: C6_6  and  C8_8 
REMARK    8  A    between atoms: C7_7  and  C9_9 
REMARK    9  A    between atoms: C8_8  and  C10_10 
USER                              x       y       z     vdW  Elec       q    Type
USER                           _______ _______ _______ _____ _____    ______ ____
ROOT
ATOM      1  C1  MOL C   1      29.127  40.359  29.525 -0.33 -0.00    +0.000 C 
ENDROOT
BRANCH   1   2
ATOM      2  C2  MOL C   1      29.980  40.435  28.250 -0.44 -0.00    +0.000 C 
BRANCH   2   3
ATOM      3  C4  MOL C   1      31.432  40.014  28.651 -0.49 -0.00    +0.000 C 
BRANCH   3   4
ATOM      4  C6  MOL C   1      31.760  40.279  30.214 -0.41 -0.00    +0.000 C 
BRANCH   4   5
ATOM      5  C8  MOL C   1      32.780  41.352  30.521 -0.49 +0.00    -0.000 C 
BRANCH   5   6
ATOM      6  C10 MOL C   1      32.991  42.172  29.253 -0.62 +0.00    -0.005 C 
ATOM      7  C12 MOL C   1      32.876  43.662  29.373 -0.69 -0.00    +0.005 C 
ENDBRANCH   5   6
ENDBRANCH   4   5
ENDBRANCH   3   4
ENDBRANCH   2   3
ENDBRANCH   1   2
BRANCH   1   8
ATOM      8  C3  MOL C   1      28.370  41.745  29.588 -0.39 -0.00    +0.000 C 
BRANCH   8   9
ATOM      9  C5  MOL C   1      27.798  41.962  31.117 -0.37 -0.00    +0.000 C 
BRANCH   9  10
ATOM     10  C7  MOL C   1      27.697  43.450  31.622 -0.52 +0.00    -0.000 C 
BRANCH  10  11
ATOM     11  C9  MOL C   1      29.064  44.126  31.988 -0.49 +0.00    -0.005 C 
ATOM     12  C11 MOL C   1      30.104  42.971  32.201 -0.41 -0.00    +0.005 C 
ENDBRANCH  10  11
ENDBRANCH   9  10
ENDBRANCH   8   9
ENDBRANCH   1   8
TORSDOF 9
TER
ENDMDL
MODEL       87
USER    Run = 87
USER    DPF = lac2.dpf
USER  
USER    Estimated Free Energy of Binding    =   -3.51 kcal/mol  [=(1)+(2)+(3)-(4)]
USER    Estimated Inhibition Constant, Ki   =    2.68 mM (millimolar)  [Temperature = 298.15 K]
USER    
USER    (1) Final Intermolecular Energy     =   -5.66 kcal/mol
USER        vdW + Hbond + desolv Energy     =   -5.66 kcal/mol
USER        Electrostatic Energy            =   +0.00 kcal/mol
USER    (2) Final Total Internal Energy     =   -0.82 kcal/mol
USER    (3) Torsional Free Energy           =   +2.68 kcal/mol
USER    (4) Unbound System's Energy         =   -0.29 kcal/mol
USER    
USER    
USER    NEWDPF move PE_ligand.pdbqt
USER    NEWDPF about 3.037000 5.209000 3.149000
USER    NEWDPF tran0 29.657167 39.959510 28.756646
USER    NEWDPF quaternion0 0.788113 -0.248420 0.075516 0.558088
USER    NEWDPF axisangle0 0.949784 -0.299379 0.091007 112.152619
USER    NEWDPF quat0 0.949784 -0.299379 0.091007 112.152619
USER    NEWDPF dihe0 146.30 -179.52 -121.12 -97.39 163.49 145.19 27.41 22.32 -56.88 
USER  keepresnum = 1 
USER  
REMARK  9 active torsions:
REMARK  status: ('A' for Active; 'I' for Inactive)
REMARK    1  A    between atoms: C1_1  and  C2_2 
REMARK    2  A    between atoms: C1_1  and  C3_3 
REMARK    3  A    between atoms: C2_2  and  C4_4 
REMARK    4  A    between atoms: C3_3  and  C5_5 
REMARK    5  A    between atoms: C4_4  and  C6_6 
REMARK    6  A    between atoms: C5_5  and  C7_7 
REMARK    7  A    between atoms: C6_6  and  C8_8 
REMARK    8  A    between atoms: C7_7  and  C9_9 
REMARK    9  A    between atoms: C8_8  and  C10_10 
USER                              x       y       z     vdW  Elec       q    Type
USER                           _______ _______ _______ _____ _____    ______ ____
ROOT
ATOM      1  C1  MOL C   1      29.594  40.428  27.692 -0.46 -0.00    +0.000 C 
ENDROOT
BRANCH   1   2
ATOM      2  C2  MOL C   1      30.791  39.680  28.296 -0.51 -0.00    +0.000 C 
BRANCH   2   3
ATOM      3  C4  MOL C   1      30.858  40.078  29.807 -0.37 -0.00    +0.000 C 
BRANCH   3   4
ATOM      4  C6  MOL C   1      32.369  40.106  30.388 -0.45 -0.00    +0.000 C 
BRANCH   4   5
ATOM      5  C8  MOL C   1      33.237  41.269  29.964 -0.51 +0.00    -0.000 C 
BRANCH   5   6
ATOM      6  C10 MOL C   1      32.432  42.549  30.164 -0.56 +0.00    -0.005 C 
ATOM      7  C12 MOL C   1      32.852  43.753  29.374 -0.69 -0.00    +0.005 C 
ENDBRANCH   5   6
ENDBRANCH   4   5
ENDBRANCH   3   4
ENDBRANCH   2   3
ENDBRANCH   1   2
BRANCH   1   8
ATOM      8  C3  MOL C   1      29.415  41.707  28.604 -0.43 -0.00    +0.000 C 
BRANCH   8   9
ATOM      9  C5  MOL C   1      27.822  41.851  28.999 -0.42 -0.00    +0.000 C 
BRANCH   9  10
ATOM     10  C7  MOL C   1      27.335  41.037  30.255 -0.36 +0.00    -0.000 C 
BRANCH  10  11
ATOM     11  C9  MOL C   1      27.273  41.849  31.595 -0.38 +0.00    -0.005 C 
ATOM     12  C11 MOL C   1      27.384  43.368  31.217 -0.54 -0.00    +0.005 C 
ENDBRANCH  10  11
ENDBRANCH   9  10
ENDBRANCH   8   9
ENDBRANCH   1   8
TORSDOF 9
TER
ENDMDL
MODEL       88
USER    Run = 88
USER    DPF = lac2.dpf
USER  
USER    Estimated Free Energy of Binding    =   -3.90 kcal/mol  [=(1)+(2)+(3)-(4)]
USER    Estimated Inhibition Constant, Ki   =    1.37 mM (millimolar)  [Temperature = 298.15 K]
USER    
USER    (1) Final Intermolecular Energy     =   -6.43 kcal/mol
USER        vdW + Hbond + desolv Energy     =   -6.43 kcal/mol
USER        Electrostatic Energy            =   +0.00 kcal/mol
USER    (2) Final Total Internal Energy     =   -0.44 kcal/mol
USER    (3) Torsional Free Energy           =   +2.68 kcal/mol
USER    (4) Unbound System's Energy         =   -0.29 kcal/mol
USER    
USER    
USER    NEWDPF move PE_ligand.pdbqt
USER    NEWDPF about 3.037000 5.209000 3.149000
USER    NEWDPF tran0 29.884943 39.011360 28.311256
USER    NEWDPF quaternion0 -0.643906 -0.480976 -0.367419 -0.468028
USER    NEWDPF axisangle0 -0.728637 -0.544267 -0.415767 -124.187245
USER    NEWDPF quat0 -0.728637 -0.544267 -0.415767 -124.187245
USER    NEWDPF dihe0 117.78 134.11 -73.47 -1.46 85.42 -72.37 -111.49 -22.77 89.43 
USER  keepresnum = 1 
USER  
REMARK  9 active torsions:
REMARK  status: ('A' for Active; 'I' for Inactive)
REMARK    1  A    between atoms: C1_1  and  C2_2 
REMARK    2  A    between atoms: C1_1  and  C3_3 
REMARK    3  A    between atoms: C2_2  and  C4_4 
REMARK    4  A    between atoms: C3_3  and  C5_5 
REMARK    5  A    between atoms: C4_4  and  C6_6 
REMARK    6  A    between atoms: C5_5  and  C7_7 
REMARK    7  A    between atoms: C6_6  and  C8_8 
REMARK    8  A    between atoms: C7_7  and  C9_9 
REMARK    9  A    between atoms: C8_8  and  C10_10 
USER                              x       y       z     vdW  Elec       q    Type
USER                           _______ _______ _______ _____ _____    ______ ____
ROOT
ATOM      1  C1  MOL C   1      30.718  39.620  27.770 -0.52 -0.00    +0.000 C 
ENDROOT
BRANCH   1   2
ATOM      2  C2  MOL C   1      30.351  39.689  29.260 -0.41 -0.00    +0.000 C 
BRANCH   2   3
ATOM      3  C4  MOL C   1      31.521  39.013  30.047 -0.43 -0.00    +0.000 C 
BRANCH   3   4
ATOM      4  C6  MOL C   1      32.859  39.923  30.097 -0.46 -0.00    +0.000 C 
BRANCH   4   5
ATOM      5  C8  MOL C   1      32.828  41.219  29.319 -0.52 +0.00    -0.000 C 
BRANCH   5   6
ATOM      6  C10 MOL C   1      32.444  42.334  30.286 -0.53 +0.00    -0.005 C 
ATOM      7  C12 MOL C   1      32.498  43.740  29.767 -0.60 -0.00    +0.005 C 
ENDBRANCH   5   6
ENDBRANCH   4   5
ENDBRANCH   3   4
ENDBRANCH   2   3
ENDBRANCH   1   2
BRANCH   1   8
ATOM      8  C3  MOL C   1      29.425  40.122  27.012 -0.46 -0.00    +0.000 C 
BRANCH   8   9
ATOM      9  C5  MOL C   1      29.698  40.027  25.390 -0.55 -0.00    +0.000 C 
BRANCH   9  10
ATOM     10  C7  MOL C   1      29.325  41.300  24.542 -0.59 +0.00    -0.000 C 
BRANCH  10  11
ATOM     11  C9  MOL C   1      29.292  41.082  22.989 -0.81 +0.00    -0.005 C 
ATOM     12  C11 MOL C   1      30.379  40.002  22.653 -0.56 -0.00    +0.005 C 
ENDBRANCH  10  11
ENDBRANCH   9  10
ENDBRANCH   8   9
ENDBRANCH   1   8
TORSDOF 9
TER
ENDMDL
MODEL       89
USER    Run = 89
USER    DPF = lac2.dpf
USER  
USER    Estimated Free Energy of Binding    =   -3.46 kcal/mol  [=(1)+(2)+(3)-(4)]
USER    Estimated Inhibition Constant, Ki   =    2.89 mM (millimolar)  [Temperature = 298.15 K]
USER    
USER    (1) Final Intermolecular Energy     =   -5.53 kcal/mol
USER        vdW + Hbond + desolv Energy     =   -5.53 kcal/mol
USER        Electrostatic Energy            =   -0.00 kcal/mol
USER    (2) Final Total Internal Energy     =   -0.90 kcal/mol
USER    (3) Torsional Free Energy           =   +2.68 kcal/mol
USER    (4) Unbound System's Energy         =   -0.29 kcal/mol
USER    
USER    
USER    NEWDPF move PE_ligand.pdbqt
USER    NEWDPF about 3.037000 5.209000 3.149000
USER    NEWDPF tran0 29.429509 41.630528 30.077766
USER    NEWDPF quaternion0 0.532634 -0.383499 -0.696443 0.290168
USER    NEWDPF axisangle0 0.556580 -0.400741 -0.727754 146.264012
USER    NEWDPF quat0 0.556580 -0.400741 -0.727754 146.264012
USER    NEWDPF dihe0 157.09 -47.89 180.00 85.32 179.60 -176.83 32.38 60.10 76.63 
USER  keepresnum = 1 
USER  
REMARK  9 active torsions:
REMARK  status: ('A' for Active; 'I' for Inactive)
REMARK    1  A    between atoms: C1_1  and  C2_2 
REMARK    2  A    between atoms: C1_1  and  C3_3 
REMARK    3  A    between atoms: C2_2  and  C4_4 
REMARK    4  A    between atoms: C3_3  and  C5_5 
REMARK    5  A    between atoms: C4_4  and  C6_6 
REMARK    6  A    between atoms: C5_5  and  C7_7 
REMARK    7  A    between atoms: C6_6  and  C8_8 
REMARK    8  A    between atoms: C7_7  and  C9_9 
REMARK    9  A    between atoms: C8_8  and  C10_10 
USER                              x       y       z     vdW  Elec       q    Type
USER                           _______ _______ _______ _____ _____    ______ ____
ROOT
ATOM      1  C1  MOL C   1      28.351  41.800  30.485 -0.35 -0.00    +0.000 C 
ENDROOT
BRANCH   1   2
ATOM      2  C2  MOL C   1      28.800  41.870  29.018 -0.40 -0.00    +0.000 C 
BRANCH   2   3
ATOM      3  C4  MOL C   1      28.495  40.472  28.385 -0.40 -0.00    +0.000 C 
BRANCH   3   4
ATOM      4  C6  MOL C   1      29.621  40.000  27.322 -0.49 -0.00    +0.000 C 
BRANCH   4   5
ATOM      5  C8  MOL C   1      30.778  39.196  27.872 -0.56 +0.00    -0.000 C 
BRANCH   5   6
ATOM      6  C10 MOL C   1      30.711  39.263  29.394 -0.44 +0.00    -0.005 C 
ATOM      7  C12 MOL C   1      32.012  39.240  30.139 -0.43 -0.01    +0.005 C 
ENDBRANCH   5   6
ENDBRANCH   4   5
ENDBRANCH   3   4
ENDBRANCH   2   3
ENDBRANCH   1   2
BRANCH   1   8
ATOM      8  C3  MOL C   1      29.141  42.965  31.205 -0.37 -0.00    +0.000 C 
BRANCH   8   9
ATOM      9  C5  MOL C   1      30.512  42.338  31.869 -0.36 -0.00    +0.000 C 
BRANCH   9  10
ATOM     10  C7  MOL C   1      31.870  42.999  31.425 -0.46 +0.00    -0.000 C 
BRANCH  10  11
ATOM     11  C9  MOL C   1      32.423  42.521  30.037 -0.57 +0.00    -0.005 C 
ATOM     12  C11 MOL C   1      33.130  43.755  29.374 -0.71 -0.00    +0.005 C 
ENDBRANCH  10  11
ENDBRANCH   9  10
ENDBRANCH   8   9
ENDBRANCH   1   8
TORSDOF 9
TER
ENDMDL
MODEL       90
USER    Run = 90
USER    DPF = lac2.dpf
USER  
USER    Estimated Free Energy of Binding    =   -3.88 kcal/mol  [=(1)+(2)+(3)-(4)]
USER    Estimated Inhibition Constant, Ki   =    1.42 mM (millimolar)  [Temperature = 298.15 K]
USER    
USER    (1) Final Intermolecular Energy     =   -6.36 kcal/mol
USER        vdW + Hbond + desolv Energy     =   -6.36 kcal/mol
USER        Electrostatic Energy            =   +0.00 kcal/mol
USER    (2) Final Total Internal Energy     =   -0.50 kcal/mol
USER    (3) Torsional Free Energy           =   +2.68 kcal/mol
USER    (4) Unbound System's Energy         =   -0.29 kcal/mol
USER    
USER    
USER    NEWDPF move PE_ligand.pdbqt
USER    NEWDPF about 3.037000 5.209000 3.149000
USER    NEWDPF tran0 30.519759 38.778565 28.006390
USER    NEWDPF quaternion0 -0.230985 -0.563057 -0.371964 -0.700897
USER    NEWDPF axisangle0 -0.323842 -0.789410 -0.521496 -91.002043
USER    NEWDPF quat0 -0.323842 -0.789410 -0.521496 -91.002043
USER    NEWDPF dihe0 179.19 -99.66 52.89 -79.82 176.26 159.73 177.59 -9.83 110.50 
USER  keepresnum = 1 
USER  
REMARK  9 active torsions:
REMARK  status: ('A' for Active; 'I' for Inactive)
REMARK    1  A    between atoms: C1_1  and  C2_2 
REMARK    2  A    between atoms: C1_1  and  C3_3 
REMARK    3  A    between atoms: C2_2  and  C4_4 
REMARK    4  A    between atoms: C3_3  and  C5_5 
REMARK    5  A    between atoms: C4_4  and  C6_6 
REMARK    6  A    between atoms: C5_5  and  C7_7 
REMARK    7  A    between atoms: C6_6  and  C8_8 
REMARK    8  A    between atoms: C7_7  and  C9_9 
REMARK    9  A    between atoms: C8_8  and  C10_10 
USER                              x       y       z     vdW  Elec       q    Type
USER                           _______ _______ _______ _____ _____    ______ ____
ROOT
ATOM      1  C1  MOL C   1      30.727  39.911  28.182 -0.47 -0.00    +0.000 C 
ENDROOT
BRANCH   1   2
ATOM      2  C2  MOL C   1      30.503  38.842  29.260 -0.46 -0.00    +0.000 C 
BRANCH   2   3
ATOM      3  C4  MOL C   1      31.673  38.983  30.288 -0.41 -0.00    +0.000 C 
BRANCH   3   4
ATOM      4  C6  MOL C   1      32.679  40.202  29.939 -0.49 -0.00    +0.000 C 
BRANCH   4   5
ATOM      5  C8  MOL C   1      32.306  41.565  30.477 -0.46 +0.00    -0.000 C 
BRANCH   5   6
ATOM      6  C10 MOL C   1      32.570  42.589  29.377 -0.62 +0.00    -0.005 C 
ATOM      7  C12 MOL C   1      33.463  43.744  29.717 -0.67 -0.00    +0.005 C 
ENDBRANCH   5   6
ENDBRANCH   4   5
ENDBRANCH   3   4
ENDBRANCH   2   3
ENDBRANCH   1   2
BRANCH   1   8
ATOM      8  C3  MOL C   1      29.366  39.966  27.378 -0.44 -0.00    +0.000 C 
BRANCH   8   9
ATOM      9  C5  MOL C   1      29.624  40.769  25.963 -0.31 -0.00    +0.000 C 
BRANCH   9  10
ATOM     10  C7  MOL C   1      29.814  39.880  24.678 -0.63 +0.00    -0.000 C 
BRANCH  10  11
ATOM     11  C9  MOL C   1      28.690  40.023  23.594 -0.64 +0.00    -0.005 C 
ATOM     12  C11 MOL C   1      29.177  41.105  22.567 -0.76 -0.00    +0.005 C 
ENDBRANCH  10  11
ENDBRANCH   9  10
ENDBRANCH   8   9
ENDBRANCH   1   8
TORSDOF 9
TER
ENDMDL
MODEL       91
USER    Run = 91
USER    DPF = lac2.dpf
USER  
USER    Estimated Free Energy of Binding    =   -3.64 kcal/mol  [=(1)+(2)+(3)-(4)]
USER    Estimated Inhibition Constant, Ki   =    2.15 mM (millimolar)  [Temperature = 298.15 K]
USER    
USER    (1) Final Intermolecular Energy     =   -5.62 kcal/mol
USER        vdW + Hbond + desolv Energy     =   -5.62 kcal/mol
USER        Electrostatic Energy            =   -0.00 kcal/mol
USER    (2) Final Total Internal Energy     =   -0.99 kcal/mol
USER    (3) Torsional Free Energy           =   +2.68 kcal/mol
USER    (4) Unbound System's Energy         =   -0.29 kcal/mol
USER    
USER    
USER    NEWDPF move PE_ligand.pdbqt
USER    NEWDPF about 3.037000 5.209000 3.149000
USER    NEWDPF tran0 30.699287 40.692476 28.343307
USER    NEWDPF quaternion0 -0.226509 -0.519921 0.820047 0.076806
USER    NEWDPF axisangle0 -0.227180 -0.521461 0.822476 171.190045
USER    NEWDPF quat0 -0.227180 -0.521461 0.822476 171.190045
USER    NEWDPF dihe0 -180.00 -33.35 -91.32 63.72 -60.48 146.45 -37.53 28.00 -90.86 
USER  keepresnum = 1 
USER  
REMARK  9 active torsions:
REMARK  status: ('A' for Active; 'I' for Inactive)
REMARK    1  A    between atoms: C1_1  and  C2_2 
REMARK    2  A    between atoms: C1_1  and  C3_3 
REMARK    3  A    between atoms: C2_2  and  C4_4 
REMARK    4  A    between atoms: C3_3  and  C5_5 
REMARK    5  A    between atoms: C4_4  and  C6_6 
REMARK    6  A    between atoms: C5_5  and  C7_7 
REMARK    7  A    between atoms: C6_6  and  C8_8 
REMARK    8  A    between atoms: C7_7  and  C9_9 
REMARK    9  A    between atoms: C8_8  and  C10_10 
USER                              x       y       z     vdW  Elec       q    Type
USER                           _______ _______ _______ _____ _____    ______ ____
ROOT
ATOM      1  C1  MOL C   1      30.892  39.614  27.946 -0.51 -0.00    +0.000 C 
ENDROOT
BRANCH   1   2
ATOM      2  C2  MOL C   1      29.589  40.419  27.825 -0.46 -0.00    +0.000 C 
BRANCH   2   3
ATOM      3  C4  MOL C   1      28.964  40.486  29.257 -0.36 -0.00    +0.000 C 
BRANCH   3   4
ATOM      4  C6  MOL C   1      28.162  41.865  29.534 -0.41 -0.00    +0.000 C 
BRANCH   4   5
ATOM      5  C8  MOL C   1      28.134  42.358  30.963 -0.39 +0.00    -0.000 C 
BRANCH   5   6
ATOM      6  C10 MOL C   1      29.481  43.008  31.259 -0.39 +0.00    -0.005 C 
ATOM      7  C12 MOL C   1      30.250  42.486  32.436 -0.37 -0.00    +0.005 C 
ENDBRANCH   5   6
ENDBRANCH   4   5
ENDBRANCH   3   4
ENDBRANCH   2   3
ENDBRANCH   1   2
BRANCH   1   8
ATOM      8  C3  MOL C   1      31.100  39.414  29.500 -0.45 -0.00    +0.000 C 
BRANCH   8   9
ATOM      9  C5  MOL C   1      32.612  39.932  29.899 -0.48 -0.00    +0.000 C 
BRANCH   9  10
ATOM     10  C7  MOL C   1      32.762  41.464  30.230 -0.52 +0.00    -0.000 C 
BRANCH  10  11
ATOM     11  C9  MOL C   1      33.373  42.339  29.081 -0.59 +0.00    -0.005 C 
ATOM     12  C11 MOL C   1      32.974  43.827  29.374 -0.70 -0.00    +0.005 C 
ENDBRANCH  10  11
ENDBRANCH   9  10
ENDBRANCH   8   9
ENDBRANCH   1   8
TORSDOF 9
TER
ENDMDL
MODEL       92
USER    Run = 92
USER    DPF = lac2.dpf
USER  
USER    Estimated Free Energy of Binding    =   -3.58 kcal/mol  [=(1)+(2)+(3)-(4)]
USER    Estimated Inhibition Constant, Ki   =    2.37 mM (millimolar)  [Temperature = 298.15 K]
USER    
USER    (1) Final Intermolecular Energy     =   -5.81 kcal/mol
USER        vdW + Hbond + desolv Energy     =   -5.81 kcal/mol
USER        Electrostatic Energy            =   +0.00 kcal/mol
USER    (2) Final Total Internal Energy     =   -0.75 kcal/mol
USER    (3) Torsional Free Energy           =   +2.68 kcal/mol
USER    (4) Unbound System's Energy         =   -0.29 kcal/mol
USER    
USER    
USER    NEWDPF move PE_ligand.pdbqt
USER    NEWDPF about 3.037000 5.209000 3.149000
USER    NEWDPF tran0 29.734873 39.828493 28.548119
USER    NEWDPF quaternion0 0.801083 -0.314216 0.000689 0.509444
USER    NEWDPF axisangle0 0.930947 -0.365153 0.000800 118.746367
USER    NEWDPF quat0 0.930947 -0.365153 0.000800 118.746367
USER    NEWDPF dihe0 -159.30 -69.10 93.47 179.81 -126.79 -168.42 61.70 18.11 -55.53 
USER  keepresnum = 1 
USER  
REMARK  9 active torsions:
REMARK  status: ('A' for Active; 'I' for Inactive)
REMARK    1  A    between atoms: C1_1  and  C2_2 
REMARK    2  A    between atoms: C1_1  and  C3_3 
REMARK    3  A    between atoms: C2_2  and  C4_4 
REMARK    4  A    between atoms: C3_3  and  C5_5 
REMARK    5  A    between atoms: C4_4  and  C6_6 
REMARK    6  A    between atoms: C5_5  and  C7_7 
REMARK    7  A    between atoms: C6_6  and  C8_8 
REMARK    8  A    between atoms: C7_7  and  C9_9 
REMARK    9  A    between atoms: C8_8  and  C10_10 
USER                              x       y       z     vdW  Elec       q    Type
USER                           _______ _______ _______ _____ _____    ______ ____
ROOT
ATOM      1  C1  MOL C   1      29.450  40.254  27.502 -0.47 -0.00    +0.000 C 
ENDROOT
BRANCH   1   2
ATOM      2  C2  MOL C   1      30.737  39.501  27.867 -0.53 -0.00    +0.000 C 
BRANCH   2   3
ATOM      3  C4  MOL C   1      31.118  39.933  29.321 -0.44 -0.00    +0.000 C 
BRANCH   3   4
ATOM      4  C6  MOL C   1      32.496  40.780  29.391 -0.52 -0.00    +0.000 C 
BRANCH   4   5
ATOM      5  C8  MOL C   1      32.555  41.897  30.408 -0.51 +0.00    -0.000 C 
BRANCH   5   6
ATOM      6  C10 MOL C   1      32.230  43.201  29.688 -0.60 +0.00    -0.005 C 
ATOM      7  C12 MOL C   1      33.377  44.115  29.375 -0.65 -0.00    +0.005 C 
ENDBRANCH   5   6
ENDBRANCH   4   5
ENDBRANCH   3   4
ENDBRANCH   2   3
ENDBRANCH   1   2
BRANCH   1   8
ATOM      8  C3  MOL C   1      29.494  41.573  28.371 -0.43 -0.00    +0.000 C 
BRANCH   8   9
ATOM      9  C5  MOL C   1      27.994  41.837  29.002 -0.43 -0.00    +0.000 C 
BRANCH   9  10
ATOM     10  C7  MOL C   1      27.929  42.164  30.540 -0.41 +0.00    -0.000 C 
BRANCH  10  11
ATOM     11  C9  MOL C   1      29.301  42.539  31.202 -0.35 +0.00    -0.005 C 
ATOM     12  C11 MOL C   1      29.116  43.942  31.879 -0.47 -0.00    +0.005 C 
ENDBRANCH  10  11
ENDBRANCH   9  10
ENDBRANCH   8   9
ENDBRANCH   1   8
TORSDOF 9
TER
ENDMDL
MODEL       93
USER    Run = 93
USER    DPF = lac2.dpf
USER  
USER    Estimated Free Energy of Binding    =   -3.81 kcal/mol  [=(1)+(2)+(3)-(4)]
USER    Estimated Inhibition Constant, Ki   =    1.60 mM (millimolar)  [Temperature = 298.15 K]
USER    
USER    (1) Final Intermolecular Energy     =   -6.25 kcal/mol
USER        vdW + Hbond + desolv Energy     =   -6.25 kcal/mol
USER        Electrostatic Energy            =   -0.00 kcal/mol
USER    (2) Final Total Internal Energy     =   -0.54 kcal/mol
USER    (3) Torsional Free Energy           =   +2.68 kcal/mol
USER    (4) Unbound System's Energy         =   -0.29 kcal/mol
USER    
USER    
USER    NEWDPF move PE_ligand.pdbqt
USER    NEWDPF about 3.037000 5.209000 3.149000
USER    NEWDPF tran0 31.695217 40.454701 28.288923
USER    NEWDPF quaternion0 -0.434884 0.479935 -0.156148 0.745759
USER    NEWDPF axisangle0 -0.652767 0.720390 -0.234380 83.551355
USER    NEWDPF quat0 -0.652767 0.720390 -0.234380 83.551355
USER    NEWDPF dihe0 165.30 -65.68 -161.83 -34.30 174.45 -173.46 -160.29 -3.72 37.60 
USER  keepresnum = 1 
USER  
REMARK  9 active torsions:
REMARK  status: ('A' for Active; 'I' for Inactive)
REMARK    1  A    between atoms: C1_1  and  C2_2 
REMARK    2  A    between atoms: C1_1  and  C3_3 
REMARK    3  A    between atoms: C2_2  and  C4_4 
REMARK    4  A    between atoms: C3_3  and  C5_5 
REMARK    5  A    between atoms: C4_4  and  C6_6 
REMARK    6  A    between atoms: C5_5  and  C7_7 
REMARK    7  A    between atoms: C6_6  and  C8_8 
REMARK    8  A    between atoms: C7_7  and  C9_9 
REMARK    9  A    between atoms: C8_8  and  C10_10 
USER                              x       y       z     vdW  Elec       q    Type
USER                           _______ _______ _______ _____ _____    ______ ____
ROOT
ATOM      1  C1  MOL C   1      30.631  40.371  28.756 -0.43 -0.00    +0.000 C 
ENDROOT
BRANCH   1   2
ATOM      2  C2  MOL C   1      31.962  40.014  29.434 -0.49 -0.00    +0.000 C 
BRANCH   2   3
ATOM      3  C4  MOL C   1      32.852  41.299  29.390 -0.54 -0.00    +0.000 C 
BRANCH   3   4
ATOM      4  C6  MOL C   1      31.989  42.664  29.277 -0.51 -0.00    +0.000 C 
BRANCH   4   5
ATOM      5  C8  MOL C   1      31.479  43.253  30.572 -0.46 +0.00    -0.000 C 
BRANCH   5   6
ATOM      6  C10 MOL C   1      32.092  42.460  31.720 -0.40 +0.00    -0.005 C 
ATOM      7  C12 MOL C   1      31.202  42.135  32.882 -0.38 -0.00    +0.005 C 
ENDBRANCH   5   6
ENDBRANCH   4   5
ENDBRANCH   3   4
ENDBRANCH   2   3
ENDBRANCH   1   2
BRANCH   1   8
ATOM      8  C3  MOL C   1      30.515  39.368  27.539 -0.53 -0.00    +0.000 C 
BRANCH   8   9
ATOM      9  C5  MOL C   1      29.471  40.002  26.434 -0.45 -0.00    +0.000 C 
BRANCH   9  10
ATOM     10  C7  MOL C   1      30.000  40.115  24.956 -0.57 +0.00    -0.000 C 
BRANCH  10  11
ATOM     11  C9  MOL C   1      28.889  40.246  23.856 -0.66 +0.00    -0.005 C 
ATOM     12  C11 MOL C   1      29.248  41.501  22.987 -0.82 -0.00    +0.005 C 
ENDBRANCH  10  11
ENDBRANCH   9  10
ENDBRANCH   8   9
ENDBRANCH   1   8
TORSDOF 9
TER
ENDMDL
MODEL       94
USER    Run = 94
USER    DPF = lac2.dpf
USER  
USER    Estimated Free Energy of Binding    =   -3.25 kcal/mol  [=(1)+(2)+(3)-(4)]
USER    Estimated Inhibition Constant, Ki   =    4.15 mM (millimolar)  [Temperature = 298.15 K]
USER    
USER    (1) Final Intermolecular Energy     =   -5.20 kcal/mol
USER        vdW + Hbond + desolv Energy     =   -5.20 kcal/mol
USER        Electrostatic Energy            =   -0.00 kcal/mol
USER    (2) Final Total Internal Energy     =   -1.02 kcal/mol
USER    (3) Torsional Free Energy           =   +2.68 kcal/mol
USER    (4) Unbound System's Energy         =   -0.29 kcal/mol
USER    
USER    
USER    NEWDPF move PE_ligand.pdbqt
USER    NEWDPF about 3.037000 5.209000 3.149000
USER    NEWDPF tran0 30.163071 42.386333 31.332852
USER    NEWDPF quaternion0 0.138888 0.844749 0.513576 0.057868
USER    NEWDPF axisangle0 0.139121 0.846167 0.514438 173.365092
USER    NEWDPF quat0 0.139121 0.846167 0.514438 173.365092
USER    NEWDPF dihe0 63.29 -82.08 -149.07 60.82 176.82 -178.16 13.73 18.60 -15.69 
USER  keepresnum = 1 
USER  
REMARK  9 active torsions:
REMARK  status: ('A' for Active; 'I' for Inactive)
REMARK    1  A    between atoms: C1_1  and  C2_2 
REMARK    2  A    between atoms: C1_1  and  C3_3 
REMARK    3  A    between atoms: C2_2  and  C4_4 
REMARK    4  A    between atoms: C3_3  and  C5_5 
REMARK    5  A    between atoms: C4_4  and  C6_6 
REMARK    6  A    between atoms: C5_5  and  C7_7 
REMARK    7  A    between atoms: C6_6  and  C8_8 
REMARK    8  A    between atoms: C7_7  and  C9_9 
REMARK    9  A    between atoms: C8_8  and  C10_10 
USER                              x       y       z     vdW  Elec       q    Type
USER                           _______ _______ _______ _____ _____    ______ ____
ROOT
ATOM      1  C1  MOL C   1      30.559  43.419  31.700 -0.43 -0.00    +0.000 C 
ENDROOT
BRANCH   1   2
ATOM      2  C2  MOL C   1      29.090  42.995  31.564 -0.42 -0.00    +0.000 C 
BRANCH   2   3
ATOM      3  C4  MOL C   1      29.090  41.493  31.129 -0.27 -0.00    +0.000 C 
BRANCH   3   4
ATOM      4  C6  MOL C   1      27.680  41.018  30.490 -0.33 -0.00    +0.000 C 
BRANCH   4   5
ATOM      5  C8  MOL C   1      27.503  41.230  29.004 -0.39 +0.00    -0.000 C 
BRANCH   5   6
ATOM      6  C10 MOL C   1      28.889  41.386  28.386 -0.45 +0.00    -0.005 C 
ATOM      7  C12 MOL C   1      29.297  40.377  27.356 -0.46 -0.00    +0.005 C 
ENDBRANCH   5   6
ENDBRANCH   4   5
ENDBRANCH   3   4
ENDBRANCH   2   3
ENDBRANCH   1   2
BRANCH   1   8
ATOM      8  C3  MOL C   1      31.131  43.373  30.227 -0.42 -0.00    +0.000 C 
BRANCH   8   9
ATOM      9  C5  MOL C   1      32.616  42.660  30.261 -0.57 -0.00    +0.000 C 
BRANCH   9  10
ATOM     10  C7  MOL C   1      32.797  41.378  29.365 -0.55 +0.00    -0.000 C 
BRANCH  10  11
ATOM     11  C9  MOL C   1      32.814  40.017  30.143 -0.47 +0.00    -0.005 C 
ATOM     12  C11 MOL C   1      31.499  39.251  29.759 -0.45 -0.00    +0.005 C 
ENDBRANCH  10  11
ENDBRANCH   9  10
ENDBRANCH   8   9
ENDBRANCH   1   8
TORSDOF 9
TER
ENDMDL
MODEL       95
USER    Run = 95
USER    DPF = lac2.dpf
USER  
USER    Estimated Free Energy of Binding    =   -3.85 kcal/mol  [=(1)+(2)+(3)-(4)]
USER    Estimated Inhibition Constant, Ki   =    1.50 mM (millimolar)  [Temperature = 298.15 K]
USER    
USER    (1) Final Intermolecular Energy     =   -6.27 kcal/mol
USER        vdW + Hbond + desolv Energy     =   -6.27 kcal/mol
USER        Electrostatic Energy            =   +0.00 kcal/mol
USER    (2) Final Total Internal Energy     =   -0.55 kcal/mol
USER    (3) Torsional Free Energy           =   +2.68 kcal/mol
USER    (4) Unbound System's Energy         =   -0.29 kcal/mol
USER    
USER    
USER    NEWDPF move PE_ligand.pdbqt
USER    NEWDPF about 3.037000 5.209000 3.149000
USER    NEWDPF tran0 31.490023 39.737962 28.401110
USER    NEWDPF quaternion0 0.034020 -0.590726 -0.051811 -0.804488
USER    NEWDPF axisangle0 0.057275 -0.994540 -0.087229 -72.878283
USER    NEWDPF quat0 0.057275 -0.994540 -0.087229 -72.878283
USER    NEWDPF dihe0 172.76 89.93 -168.04 6.26 180.00 168.01 176.39 -6.89 73.86 
USER  keepresnum = 1 
USER  
REMARK  9 active torsions:
REMARK  status: ('A' for Active; 'I' for Inactive)
REMARK    1  A    between atoms: C1_1  and  C2_2 
REMARK    2  A    between atoms: C1_1  and  C3_3 
REMARK    3  A    between atoms: C2_2  and  C4_4 
REMARK    4  A    between atoms: C3_3  and  C5_5 
REMARK    5  A    between atoms: C4_4  and  C6_6 
REMARK    6  A    between atoms: C5_5  and  C7_7 
REMARK    7  A    between atoms: C6_6  and  C8_8 
REMARK    8  A    between atoms: C7_7  and  C9_9 
REMARK    9  A    between atoms: C8_8  and  C10_10 
USER                              x       y       z     vdW  Elec       q    Type
USER                           _______ _______ _______ _____ _____    ______ ____
ROOT
ATOM      1  C1  MOL C   1      30.771  40.627  28.627 -0.36 -0.00    +0.000 C 
ENDROOT
BRANCH   1   2
ATOM      2  C2  MOL C   1      31.484  39.738  29.656 -0.45 -0.00    +0.000 C 
BRANCH   2   3
ATOM      3  C4  MOL C   1      32.820  40.460  30.031 -0.49 -0.00    +0.000 C 
BRANCH   3   4
ATOM      4  C6  MOL C   1      33.011  41.874  29.267 -0.59 -0.00    +0.000 C 
BRANCH   4   5
ATOM      5  C8  MOL C   1      32.477  43.102  29.968 -0.61 +0.00    -0.000 C 
BRANCH   5   6
ATOM      6  C10 MOL C   1      31.889  42.658  31.303 -0.46 +0.00    -0.005 C 
ATOM      7  C12 MOL C   1      30.519  43.161  31.649 -0.43 -0.00    +0.005 C 
ENDBRANCH   5   6
ENDBRANCH   4   5
ENDBRANCH   3   4
ENDBRANCH   2   3
ENDBRANCH   1   2
BRANCH   1   8
ATOM      8  C3  MOL C   1      29.813  39.646  27.840 -0.45 -0.00    +0.000 C 
BRANCH   8   9
ATOM      9  C5  MOL C   1      29.374  40.364  26.424 -0.42 -0.00    +0.000 C 
BRANCH   9  10
ATOM     10  C7  MOL C   1      30.001  39.763  25.111 -0.56 +0.00    -0.000 C 
BRANCH  10  11
ATOM     11  C9  MOL C   1      29.996  40.721  23.869 -0.73 +0.00    -0.005 C 
ATOM     12  C11 MOL C   1      28.532  40.735  23.306 -0.73 -0.00    +0.005 C 
ENDBRANCH  10  11
ENDBRANCH   9  10
ENDBRANCH   8   9
ENDBRANCH   1   8
TORSDOF 9
TER
ENDMDL
MODEL       96
USER    Run = 96
USER    DPF = lac2.dpf
USER  
USER    Estimated Free Energy of Binding    =   -3.34 kcal/mol  [=(1)+(2)+(3)-(4)]
USER    Estimated Inhibition Constant, Ki   =    3.54 mM (millimolar)  [Temperature = 298.15 K]
USER    
USER    (1) Final Intermolecular Energy     =   -5.48 kcal/mol
USER        vdW + Hbond + desolv Energy     =   -5.48 kcal/mol
USER        Electrostatic Energy            =   -0.00 kcal/mol
USER    (2) Final Total Internal Energy     =   -0.83 kcal/mol
USER    (3) Torsional Free Energy           =   +2.68 kcal/mol
USER    (4) Unbound System's Energy         =   -0.29 kcal/mol
USER    
USER    
USER    NEWDPF move PE_ligand.pdbqt
USER    NEWDPF about 3.037000 5.209000 3.149000
USER    NEWDPF tran0 29.967927 41.453486 31.051684
USER    NEWDPF quaternion0 0.458404 0.598222 -0.039977 0.656047
USER    NEWDPF axisangle0 0.607384 0.792641 -0.052969 98.001778
USER    NEWDPF quat0 0.607384 0.792641 -0.052969 98.001778
USER    NEWDPF dihe0 56.41 176.44 147.73 -70.77 -154.57 5.64 133.95 30.50 59.13 
USER  keepresnum = 1 
USER  
REMARK  9 active torsions:
REMARK  status: ('A' for Active; 'I' for Inactive)
REMARK    1  A    between atoms: C1_1  and  C2_2 
REMARK    2  A    between atoms: C1_1  and  C3_3 
REMARK    3  A    between atoms: C2_2  and  C4_4 
REMARK    4  A    between atoms: C3_3  and  C5_5 
REMARK    5  A    between atoms: C4_4  and  C6_6 
REMARK    6  A    between atoms: C5_5  and  C7_7 
REMARK    7  A    between atoms: C6_6  and  C8_8 
REMARK    8  A    between atoms: C7_7  and  C9_9 
REMARK    9  A    between atoms: C8_8  and  C10_10 
USER                              x       y       z     vdW  Elec       q    Type
USER                           _______ _______ _______ _____ _____    ______ ____
ROOT
ATOM      1  C1  MOL C   1      29.749  42.314  30.297 -0.31 -0.00    +0.000 C 
ENDROOT
BRANCH   1   2
ATOM      2  C2  MOL C   1      30.060  42.462  31.794 -0.36 -0.00    +0.000 C 
BRANCH   2   3
ATOM      3  C4  MOL C   1      31.608  42.308  31.952 -0.41 -0.00    +0.000 C 
BRANCH   3   4
ATOM      4  C6  MOL C   1      32.225  41.128  31.032 -0.40 -0.00    +0.000 C 
BRANCH   4   5
ATOM      5  C8  MOL C   1      33.196  41.547  29.952 -0.56 +0.00    -0.000 C 
BRANCH   5   6
ATOM      6  C10 MOL C   1      32.633  42.792  29.276 -0.62 +0.00    -0.005 C 
ATOM      7  C12 MOL C   1      33.375  44.078  29.482 -0.65 -0.00    +0.005 C 
ENDBRANCH   5   6
ENDBRANCH   4   5
ENDBRANCH   3   4
ENDBRANCH   2   3
ENDBRANCH   1   2
BRANCH   1   8
ATOM      8  C3  MOL C   1      28.393  41.503  30.245 -0.34 -0.00    +0.000 C 
BRANCH   8   9
ATOM      9  C5  MOL C   1      28.619  40.161  29.316 -0.35 -0.00    +0.000 C 
BRANCH   9  10
ATOM     10  C7  MOL C   1      29.190  40.400  27.869 -0.45 +0.00    -0.000 C 
BRANCH  10  11
ATOM     11  C9  MOL C   1      30.512  39.625  27.535 -0.51 +0.00    -0.005 C 
ATOM     12  C11 MOL C   1      30.755  38.607  28.704 -0.52 -0.00    +0.005 C 
ENDBRANCH  10  11
ENDBRANCH   9  10
ENDBRANCH   8   9
ENDBRANCH   1   8
TORSDOF 9
TER
ENDMDL
MODEL       97
USER    Run = 97
USER    DPF = lac2.dpf
USER  
USER    Estimated Free Energy of Binding    =   -3.67 kcal/mol  [=(1)+(2)+(3)-(4)]
USER    Estimated Inhibition Constant, Ki   =    2.06 mM (millimolar)  [Temperature = 298.15 K]
USER    
USER    (1) Final Intermolecular Energy     =   -5.77 kcal/mol
USER        vdW + Hbond + desolv Energy     =   -5.77 kcal/mol
USER        Electrostatic Energy            =   +0.00 kcal/mol
USER    (2) Final Total Internal Energy     =   -0.86 kcal/mol
USER    (3) Torsional Free Energy           =   +2.68 kcal/mol
USER    (4) Unbound System's Energy         =   -0.29 kcal/mol
USER    
USER    
USER    NEWDPF move PE_ligand.pdbqt
USER    NEWDPF about 3.037000 5.209000 3.149000
USER    NEWDPF tran0 30.607136 40.332936 29.035196
USER    NEWDPF quaternion0 -0.952561 0.213120 0.188002 0.108920
USER    NEWDPF axisangle0 -0.958262 0.214395 0.189127 167.493928
USER    NEWDPF quat0 -0.958262 0.214395 0.189127 167.493928
USER    NEWDPF dihe0 -130.05 174.29 74.92 -37.35 180.00 -36.60 57.51 51.71 35.20 
USER  keepresnum = 1 
USER  
REMARK  9 active torsions:
REMARK  status: ('A' for Active; 'I' for Inactive)
REMARK    1  A    between atoms: C1_1  and  C2_2 
REMARK    2  A    between atoms: C1_1  and  C3_3 
REMARK    3  A    between atoms: C2_2  and  C4_4 
REMARK    4  A    between atoms: C3_3  and  C5_5 
REMARK    5  A    between atoms: C4_4  and  C6_6 
REMARK    6  A    between atoms: C5_5  and  C7_7 
REMARK    7  A    between atoms: C6_6  and  C8_8 
REMARK    8  A    between atoms: C7_7  and  C9_9 
REMARK    9  A    between atoms: C8_8  and  C10_10 
USER                              x       y       z     vdW  Elec       q    Type
USER                           _______ _______ _______ _____ _____    ______ ____
ROOT
ATOM      1  C1  MOL C   1      29.888  39.508  28.634 -0.43 -0.00    +0.000 C 
ENDROOT
BRANCH   1   2
ATOM      2  C2  MOL C   1      31.395  39.625  28.361 -0.48 -0.00    +0.000 C 
BRANCH   2   3
ATOM      3  C4  MOL C   1      32.104  39.692  29.753 -0.47 -0.00    +0.000 C 
BRANCH   3   4
ATOM      4  C6  MOL C   1      32.906  41.079  29.990 -0.53 -0.00    +0.000 C 
BRANCH   4   5
ATOM      5  C8  MOL C   1      32.135  42.205  30.640 -0.47 +0.00    -0.000 C 
BRANCH   5   6
ATOM      6  C10 MOL C   1      32.031  43.343  29.631 -0.58 +0.00    -0.005 C 
ATOM      7  C12 MOL C   1      33.267  44.156  29.384 -0.63 -0.00    +0.005 C 
ENDBRANCH   5   6
ENDBRANCH   4   5
ENDBRANCH   3   4
ENDBRANCH   2   3
ENDBRANCH   1   2
BRANCH   1   8
ATOM      8  C3  MOL C   1      29.259  40.808  27.990 -0.47 -0.00    +0.000 C 
BRANCH   8   9
ATOM      9  C5  MOL C   1      28.905  41.873  29.197 -0.39 -0.00    +0.000 C 
BRANCH   9  10
ATOM     10  C7  MOL C   1      27.423  41.864  29.726 -0.42 +0.00    -0.000 C 
BRANCH  10  11
ATOM     11  C9  MOL C   1      27.229  42.425  31.178 -0.47 +0.00    -0.005 C 
ATOM     12  C11 MOL C   1      28.603  43.036  31.622 -0.43 -0.00    +0.005 C 
ENDBRANCH  10  11
ENDBRANCH   9  10
ENDBRANCH   8   9
ENDBRANCH   1   8
TORSDOF 9
TER
ENDMDL
MODEL       98
USER    Run = 98
USER    DPF = lac2.dpf
USER  
USER    Estimated Free Energy of Binding    =   -3.61 kcal/mol  [=(1)+(2)+(3)-(4)]
USER    Estimated Inhibition Constant, Ki   =    2.28 mM (millimolar)  [Temperature = 298.15 K]
USER    
USER    (1) Final Intermolecular Energy     =   -5.72 kcal/mol
USER        vdW + Hbond + desolv Energy     =   -5.72 kcal/mol
USER        Electrostatic Energy            =   +0.00 kcal/mol
USER    (2) Final Total Internal Energy     =   -0.86 kcal/mol
USER    (3) Torsional Free Energy           =   +2.68 kcal/mol
USER    (4) Unbound System's Energy         =   -0.29 kcal/mol
USER    
USER    
USER    NEWDPF move PE_ligand.pdbqt
USER    NEWDPF about 3.037000 5.209000 3.149000
USER    NEWDPF tran0 31.689646 42.078346 29.541986
USER    NEWDPF quaternion0 -0.015864 0.342667 -0.356079 -0.869215
USER    NEWDPF axisangle0 -0.032085 0.693049 -0.720176 -59.264816
USER    NEWDPF quat0 -0.032085 0.693049 -0.720176 -59.264816
USER    NEWDPF dihe0 39.57 -0.02 109.73 -18.94 54.48 163.86 -30.06 29.06 -78.31 
USER  keepresnum = 1 
USER  
REMARK  9 active torsions:
REMARK  status: ('A' for Active; 'I' for Inactive)
REMARK    1  A    between atoms: C1_1  and  C2_2 
REMARK    2  A    between atoms: C1_1  and  C3_3 
REMARK    3  A    between atoms: C2_2  and  C4_4 
REMARK    4  A    between atoms: C3_3  and  C5_5 
REMARK    5  A    between atoms: C4_4  and  C6_6 
REMARK    6  A    between atoms: C5_5  and  C7_7 
REMARK    7  A    between atoms: C6_6  and  C8_8 
REMARK    8  A    between atoms: C7_7  and  C9_9 
REMARK    9  A    between atoms: C8_8  and  C10_10 
USER                              x       y       z     vdW  Elec       q    Type
USER                           _______ _______ _______ _____ _____    ______ ____
ROOT
ATOM      1  C1  MOL C   1      32.628  42.637  29.948 -0.61 -0.00    +0.000 C 
ENDROOT
BRANCH   1   2
ATOM      2  C2  MOL C   1      32.617  41.356  29.101 -0.52 -0.00    +0.000 C 
BRANCH   2   3
ATOM      3  C4  MOL C   1      31.797  40.291  29.901 -0.44 -0.00    +0.000 C 
BRANCH   3   4
ATOM      4  C6  MOL C   1      31.132  39.161  28.953 -0.50 -0.00    +0.000 C 
BRANCH   4   5
ATOM      5  C8  MOL C   1      30.655  39.612  27.591 -0.51 +0.00    -0.000 C 
BRANCH   5   6
ATOM      6  C10 MOL C   1      29.286  40.259  27.767 -0.45 +0.00    -0.005 C 
ATOM      7  C12 MOL C   1      29.246  41.750  27.915 -0.47 -0.00    +0.005 C 
ENDBRANCH   5   6
ENDBRANCH   4   5
ENDBRANCH   3   4
ENDBRANCH   2   3
ENDBRANCH   1   2
BRANCH   1   8
ATOM      8  C3  MOL C   1      31.899  42.238  31.293 -0.43 -0.00    +0.000 C 
BRANCH   8   9
ATOM      9  C5  MOL C   1      30.665  43.298  31.555 -0.44 -0.00    +0.000 C 
BRANCH   9  10
ATOM     10  C7  MOL C   1      29.212  42.767  31.261 -0.38 +0.00    -0.000 C 
BRANCH  10  11
ATOM     11  C9  MOL C   1      28.052  43.758  31.625 -0.49 +0.00    -0.005 C 
ATOM     12  C11 MOL C   1      26.717  42.935  31.591 -0.50 -0.00    +0.005 C 
ENDBRANCH  10  11
ENDBRANCH   9  10
ENDBRANCH   8   9
ENDBRANCH   1   8
TORSDOF 9
TER
ENDMDL
MODEL       99
USER    Run = 99
USER    DPF = lac2.dpf
USER  
USER    Estimated Free Energy of Binding    =   -3.96 kcal/mol  [=(1)+(2)+(3)-(4)]
USER    Estimated Inhibition Constant, Ki   =    1.24 mM (millimolar)  [Temperature = 298.15 K]
USER    
USER    (1) Final Intermolecular Energy     =   -6.39 kcal/mol
USER        vdW + Hbond + desolv Energy     =   -6.39 kcal/mol
USER        Electrostatic Energy            =   -0.00 kcal/mol
USER    (2) Final Total Internal Energy     =   -0.54 kcal/mol
USER    (3) Torsional Free Energy           =   +2.68 kcal/mol
USER    (4) Unbound System's Energy         =   -0.29 kcal/mol
USER    
USER    
USER    NEWDPF move PE_ligand.pdbqt
USER    NEWDPF about 3.037000 5.209000 3.149000
USER    NEWDPF tran0 30.047125 38.734956 28.196870
USER    NEWDPF quaternion0 -0.845830 -0.206955 -0.303217 -0.387040
USER    NEWDPF axisangle0 -0.917324 -0.224448 -0.328846 -134.459085
USER    NEWDPF quat0 -0.917324 -0.224448 -0.328846 -134.459085
USER    NEWDPF dihe0 -109.40 -157.68 124.43 -65.87 -15.71 146.34 -22.29 -67.14 -155.81 
USER  keepresnum = 1 
USER  
REMARK  9 active torsions:
REMARK  status: ('A' for Active; 'I' for Inactive)
REMARK    1  A    between atoms: C1_1  and  C2_2 
REMARK    2  A    between atoms: C1_1  and  C3_3 
REMARK    3  A    between atoms: C2_2  and  C4_4 
REMARK    4  A    between atoms: C3_3  and  C5_5 
REMARK    5  A    between atoms: C4_4  and  C6_6 
REMARK    6  A    between atoms: C5_5  and  C7_7 
REMARK    7  A    between atoms: C6_6  and  C8_8 
REMARK    8  A    between atoms: C7_7  and  C9_9 
REMARK    9  A    between atoms: C8_8  and  C10_10 
USER                              x       y       z     vdW  Elec       q    Type
USER                           _______ _______ _______ _____ _____    ______ ____
ROOT
ATOM      1  C1  MOL C   1      30.748  38.775  27.267 -0.50 -0.00    +0.000 C 
ENDROOT
BRANCH   1   2
ATOM      2  C2  MOL C   1      31.134  39.081  28.722 -0.51 -0.00    +0.000 C 
BRANCH   2   3
ATOM      3  C4  MOL C   1      32.016  40.372  28.695 -0.40 -0.00    +0.000 C 
BRANCH   3   4
ATOM      4  C6  MOL C   1      32.132  41.090  30.141 -0.46 -0.00    +0.000 C 
BRANCH   4   5
ATOM      5  C8  MOL C   1      31.330  42.356  30.337 -0.42 +0.00    -0.000 C 
BRANCH   5   6
ATOM      6  C10 MOL C   1      31.908  43.423  29.413 -0.56 +0.00    -0.005 C 
ATOM      7  C12 MOL C   1      33.379  43.694  29.516 -0.70 -0.00    +0.005 C 
ENDBRANCH   5   6
ENDBRANCH   4   5
ENDBRANCH   3   4
ENDBRANCH   2   3
ENDBRANCH   1   2
BRANCH   1   8
ATOM      8  C3  MOL C   1      29.675  39.875  26.894 -0.44 -0.00    +0.000 C 
BRANCH   8   9
ATOM      9  C5  MOL C   1      29.990  40.421  25.372 -0.34 -0.00    +0.000 C 
BRANCH   9  10
ATOM     10  C7  MOL C   1      29.347  39.605  24.189 -0.60 +0.00    -0.000 C 
BRANCH  10  11
ATOM     11  C9  MOL C   1      28.540  40.459  23.150 -0.72 +0.00    -0.005 C 
ATOM     12  C11 MOL C   1      29.286  41.831  23.003 -0.75 -0.00    +0.005 C 
ENDBRANCH  10  11
ENDBRANCH   9  10
ENDBRANCH   8   9
ENDBRANCH   1   8
TORSDOF 9
TER
ENDMDL
MODEL      100
USER    Run = 100
USER    DPF = lac2.dpf
USER  
USER    Estimated Free Energy of Binding    =   -3.59 kcal/mol  [=(1)+(2)+(3)-(4)]
USER    Estimated Inhibition Constant, Ki   =    2.33 mM (millimolar)  [Temperature = 298.15 K]
USER    
USER    (1) Final Intermolecular Energy     =   -5.71 kcal/mol
USER        vdW + Hbond + desolv Energy     =   -5.71 kcal/mol
USER        Electrostatic Energy            =   +0.00 kcal/mol
USER    (2) Final Total Internal Energy     =   -0.86 kcal/mol
USER    (3) Torsional Free Energy           =   +2.68 kcal/mol
USER    (4) Unbound System's Energy         =   -0.29 kcal/mol
USER    
USER    
USER    NEWDPF move PE_ligand.pdbqt
USER    NEWDPF about 3.037000 5.209000 3.149000
USER    NEWDPF tran0 30.823079 40.580805 28.824080
USER    NEWDPF quaternion0 0.839513 -0.199767 -0.178899 -0.472553
USER    NEWDPF axisangle0 0.952582 -0.226672 -0.202994 -123.599722
USER    NEWDPF quat0 0.952582 -0.226672 -0.202994 -123.599722
USER    NEWDPF dihe0 158.24 -37.83 -174.53 -86.82 1.63 -18.30 152.14 50.23 61.12 
USER  keepresnum = 1 
USER  
REMARK  9 active torsions:
REMARK  status: ('A' for Active; 'I' for Inactive)
REMARK    1  A    between atoms: C1_1  and  C2_2 
REMARK    2  A    between atoms: C1_1  and  C3_3 
REMARK    3  A    between atoms: C2_2  and  C4_4 
REMARK    4  A    between atoms: C3_3  and  C5_5 
REMARK    5  A    between atoms: C4_4  and  C6_6 
REMARK    6  A    between atoms: C5_5  and  C7_7 
REMARK    7  A    between atoms: C6_6  and  C8_8 
REMARK    8  A    between atoms: C7_7  and  C9_9 
REMARK    9  A    between atoms: C8_8  and  C10_10 
USER                              x       y       z     vdW  Elec       q    Type
USER                           _______ _______ _______ _____ _____    ______ ____
ROOT
ATOM      1  C1  MOL C   1      30.213  39.673  29.223 -0.40 -0.00    +0.000 C 
ENDROOT
BRANCH   1   2
ATOM      2  C2  MOL C   1      31.628  39.638  28.630 -0.46 -0.00    +0.000 C 
BRANCH   2   3
ATOM      3  C4  MOL C   1      32.607  40.078  29.768 -0.50 -0.00    +0.000 C 
BRANCH   3   4
ATOM      4  C6  MOL C   1      31.888  40.966  30.914 -0.37 -0.00    +0.000 C 
BRANCH   4   5
ATOM      5  C8  MOL C   1      31.833  42.459  30.682 -0.46 +0.00    -0.000 C 
BRANCH   5   6
ATOM      6  C10 MOL C   1      32.627  42.763  29.416 -0.64 +0.00    -0.005 C 
ATOM      7  C12 MOL C   1      33.372  44.064  29.370 -0.66 -0.00    +0.005 C 
ENDBRANCH   5   6
ENDBRANCH   4   5
ENDBRANCH   3   4
ENDBRANCH   2   3
ENDBRANCH   1   2
BRANCH   1   8
ATOM      8  C3  MOL C   1      29.290  40.169  28.039 -0.44 -0.00    +0.000 C 
BRANCH   8   9
ATOM      9  C5  MOL C   1      28.883  41.741  28.315 -0.45 -0.00    +0.000 C 
BRANCH   9  10
ATOM     10  C7  MOL C   1      27.751  41.995  29.379 -0.41 +0.00    -0.000 C 
BRANCH  10  11
ATOM     11  C9  MOL C   1      28.239  42.596  30.743 -0.38 +0.00    -0.005 C 
ATOM     12  C11 MOL C   1      27.015  43.340  31.382 -0.54 -0.00    +0.005 C 
ENDBRANCH  10  11
ENDBRANCH   9  10
ENDBRANCH   8   9
ENDBRANCH   1   8
TORSDOF 9
TER
ENDMDL
